11707110
  -OEChem-11282409422D

 60 64  0     0  0  0  0  0  0999 V2000
    2.0000   -4.7873    0.0000 I   0  0  0  0  0  0  0  0  0  0  0  0
    5.4639   -4.7472    0.0000 F   0  0  0  0  0  0  0  0  0  0  0  0
    7.1892   -2.7127    0.0000 O   0  0  0  0  0  0  0  0  0  0  0  0
    8.9212    0.2873    0.0000 O   0  0  0  0  0  0  0  0  0  0  0  0
    3.6590    0.3114    0.0000 O   0  0  0  0  0  0  0  0  0  0  0  0
    8.0552    4.7873    0.0000 O   0  0  0  0  0  0  0  0  0  0  0  0
    8.0552   -1.2127    0.0000 N   0  0  0  0  0  0  0  0  0  0  0  0
    7.1892    0.2873    0.0000 N   0  0  0  0  0  0  0  0  0  0  0  0
    4.5231   -1.2336    0.0000 N   0  0  0  0  0  0  0  0  0  0  0  0
    5.4407   -2.7473    0.0000 N   0  0  0  0  0  0  0  0  0  0  0  0
    8.9212    3.2873    0.0000 N   0  0  0  0  0  0  0  0  0  0  0  0
    8.9212   -1.7127    0.0000 C   0  0  0  0  0  0  0  0  0  0  0  0
    9.4212   -2.5788    0.0000 C   0  0  0  0  0  0  0  0  0  0  0  0
    9.9212   -1.7127    0.0000 C   0  0  0  0  0  0  0  0  0  0  0  0
    7.1892   -1.7127    0.0000 C   0  0  0  0  0  0  0  0  0  0  0  0
    8.0552   -0.2127    0.0000 C   0  0  0  0  0  0  0  0  0  0  0  0
    6.3231   -1.2127    0.0000 C   0  0  0  0  0  0  0  0  0  0  0  0
    6.3231   -0.2127    0.0000 C   0  0  0  0  0  0  0  0  0  0  0  0
    5.4292   -1.7474    0.0000 C   0  0  0  0  0  0  0  0  0  0  0  0
    5.4292    0.3219    0.0000 C   0  0  0  0  0  0  0  0  0  0  0  0
    7.1892    1.2873    0.0000 C   0  0  0  0  0  0  0  0  0  0  0  0
    4.5231   -0.1919    0.0000 C   0  0  0  0  0  0  0  0  0  0  0  0
    5.4407    1.3218    0.0000 C   0  0  0  0  0  0  0  0  0  0  0  0
    8.0552    1.7873    0.0000 C   0  0  0  0  0  0  0  0  0  0  0  0
    6.3231    1.7873    0.0000 C   0  0  0  0  0  0  0  0  0  0  0  0
    3.6590   -1.7369    0.0000 C   0  0  0  0  0  0  0  0  0  0  0  0
    4.5806   -3.2573    0.0000 C   0  0  0  0  0  0  0  0  0  0  0  0
    8.0552    2.7873    0.0000 C   0  0  0  0  0  0  0  0  0  0  0  0
    6.3231    2.7873    0.0000 C   0  0  0  0  0  0  0  0  0  0  0  0
    7.1892    3.2873    0.0000 C   0  0  0  0  0  0  0  0  0  0  0  0
    4.5921   -4.2572    0.0000 C   0  0  0  0  0  0  0  0  0  0  0  0
    3.7088   -2.7674    0.0000 C   0  0  0  0  0  0  0  0  0  0  0  0
    3.7319   -4.7672    0.0000 C   0  0  0  0  0  0  0  0  0  0  0  0
    2.8486   -3.2773    0.0000 C   0  0  0  0  0  0  0  0  0  0  0  0
    2.8602   -4.2773    0.0000 C   0  0  0  0  0  0  0  0  0  0  0  0
    8.9212    4.2873    0.0000 C   0  0  0  0  0  0  0  0  0  0  0  0
    9.7872    4.7873    0.0000 C   0  0  0  0  0  0  0  0  0  0  0  0
    8.4828   -2.1512    0.0000 H   0  0  0  0  0  0  0  0  0  0  0  0
    8.9462   -2.9773    0.0000 H   0  0  0  0  0  0  0  0  0  0  0  0
    9.8962   -2.9773    0.0000 H   0  0  0  0  0  0  0  0  0  0  0  0
   10.5038   -1.9248    0.0000 H   0  0  0  0  0  0  0  0  0  0  0  0
   10.0289   -1.1022    0.0000 H   0  0  0  0  0  0  0  0  0  0  0  0
    5.9812   -3.0511    0.0000 H   0  0  0  0  0  0  0  0  0  0  0  0
    6.0607    1.3147    0.0000 H   0  0  0  0  0  0  0  0  0  0  0  0
    5.4479    1.9418    0.0000 H   0  0  0  0  0  0  0  0  0  0  0  0
    4.8208    1.3290    0.0000 H   0  0  0  0  0  0  0  0  0  0  0  0
    8.5921    1.4773    0.0000 H   0  0  0  0  0  0  0  0  0  0  0  0
    5.7862    1.4773    0.0000 H   0  0  0  0  0  0  0  0  0  0  0  0
    3.3470   -1.2012    0.0000 H   0  0  0  0  0  0  0  0  0  0  0  0
    3.1233   -2.0490    0.0000 H   0  0  0  0  0  0  0  0  0  0  0  0
    3.9711   -2.2726    0.0000 H   0  0  0  0  0  0  0  0  0  0  0  0
    5.7862    3.0973    0.0000 H   0  0  0  0  0  0  0  0  0  0  0  0
    7.1892    3.9073    0.0000 H   0  0  0  0  0  0  0  0  0  0  0  0
    3.7016   -2.1474    0.0000 H   0  0  0  0  0  0  0  0  0  0  0  0
    9.4581    2.9773    0.0000 H   0  0  0  0  0  0  0  0  0  0  0  0
    3.7391   -5.3872    0.0000 H   0  0  0  0  0  0  0  0  0  0  0  0
    2.3081   -2.9736    0.0000 H   0  0  0  0  0  0  0  0  0  0  0  0
   10.0972    4.2503    0.0000 H   0  0  0  0  0  0  0  0  0  0  0  0
   10.3242    5.0973    0.0000 H   0  0  0  0  0  0  0  0  0  0  0  0
    9.4772    5.3242    0.0000 H   0  0  0  0  0  0  0  0  0  0  0  0
  1 35  1  0  0  0  0
  2 31  1  0  0  0  0
  3 15  2  0  0  0  0
  4 16  2  0  0  0  0
  5 22  2  0  0  0  0
  6 36  2  0  0  0  0
  7 12  1  0  0  0  0
  7 15  1  0  0  0  0
  7 16  1  0  0  0  0
  8 16  1  0  0  0  0
  8 18  1  0  0  0  0
  8 21  1  0  0  0  0
  9 19  1  0  0  0  0
  9 22  1  0  0  0  0
  9 26  1  0  0  0  0
 10 19  1  0  0  0  0
 10 27  1  0  0  0  0
 10 43  1  0  0  0  0
 11 28  1  0  0  0  0
 11 36  1  0  0  0  0
 11 55  1  0  0  0  0
 12 13  1  0  0  0  0
 12 14  1  0  0  0  0
 12 38  1  0  0  0  0
 13 14  1  0  0  0  0
 13 39  1  0  0  0  0
 13 40  1  0  0  0  0
 14 41  1  0  0  0  0
 14 42  1  0  0  0  0
 15 17  1  0  0  0  0
 17 18  1  0  0  0  0
 17 19  2  0  0  0  0
 18 20  2  0  0  0  0
 20 22  1  0  0  0  0
 20 23  1  0  0  0  0
 21 24  1  0  0  0  0
 21 25  2  0  0  0  0
 23 44  1  0  0  0  0
 23 45  1  0  0  0  0
 23 46  1  0  0  0  0
 24 28  2  0  0  0  0
 24 47  1  0  0  0  0
 25 29  1  0  0  0  0
 25 48  1  0  0  0  0
 26 49  1  0  0  0  0
 26 50  1  0  0  0  0
 26 51  1  0  0  0  0
 27 31  2  0  0  0  0
 27 32  1  0  0  0  0
 28 30  1  0  0  0  0
 29 30  2  0  0  0  0
 29 52  1  0  0  0  0
 30 53  1  0  0  0  0
 31 33  1  0  0  0  0
 32 34  2  0  0  0  0
 32 54  1  0  0  0  0
 33 35  2  0  0  0  0
 33 56  1  0  0  0  0
 34 35  1  0  0  0  0
 34 57  1  0  0  0  0
 36 37  1  0  0  0  0
 37 58  1  0  0  0  0
 37 59  1  0  0  0  0
 37 60  1  0  0  0  0
M  END
> <PUBCHEM_COMPOUND_CID>
11707110

> <PUBCHEM_COMPOUND_CANONICALIZED>
1

> <PUBCHEM_CACTVS_COMPLEXITY>
1090

> <PUBCHEM_CACTVS_HBOND_ACCEPTOR>
6

> <PUBCHEM_CACTVS_HBOND_DONOR>
2

> <PUBCHEM_CACTVS_ROTATABLE_BOND>
5

> <PUBCHEM_CACTVS_SUBSKEYS>
AAADceB7uQAAAgAAAAAAAAAAGAAAAAAAAAA8YIEAAAAAAACBQAAAHwAwAAAADCjDkAwzwIPAAACIAiVSUACCAAAhAgAIiAEIZMiIICrA0dGEIAholyLIyWcQAAAAAAAAAAQAAAAAAAAACAAAAAAAAAAAAA==

> <PUBCHEM_IUPAC_OPENEYE_NAME>
N-[3-[3-cyclopropyl-5-(2-fluoro-4-iodo-anilino)-6,8-dimethyl-2,4,7-trioxo-pyrido[4,3-d]pyrimidin-1-yl]phenyl]acetamide

> <PUBCHEM_IUPAC_CAS_NAME>
N-[3-[3-cyclopropyl-5-(2-fluoro-4-iodoanilino)-6,8-dimethyl-2,4,7-trioxo-1-pyrido[4,3-d]pyrimidinyl]phenyl]acetamide

> <PUBCHEM_IUPAC_NAME_MARKUP>
<I>N</I>-[3-[3-cyclopropyl-5-(2-fluoro-4-iodoanilino)-6,8-dimethyl-2,4,7-trioxopyrido[4,3-d]pyrimidin-1-yl]phenyl]acetamide

> <PUBCHEM_IUPAC_NAME>
N-[3-[3-cyclopropyl-5-(2-fluoro-4-iodoanilino)-6,8-dimethyl-2,4,7-trioxopyrido[4,3-d]pyrimidin-1-yl]phenyl]acetamide

> <PUBCHEM_IUPAC_SYSTEMATIC_NAME>
N-[3-[3-cyclopropyl-5-[(2-fluoranyl-4-iodanyl-phenyl)amino]-6,8-dimethyl-2,4,7-tris(oxidanylidene)pyrido[4,3-d]pyrimidin-1-yl]phenyl]ethanamide

> <PUBCHEM_IUPAC_TRADITIONAL_NAME>
N-[3-[3-cyclopropyl-5-(2-fluoro-4-iodo-anilino)-2,4,7-triketo-6,8-dimethyl-pyrido[4,3-d]pyrimidin-1-yl]phenyl]acetamide

> <PUBCHEM_IUPAC_INCHI>
InChI=1S/C26H23FIN5O4/c1-13-22-21(23(31(3)24(13)35)30-20-10-7-15(28)11-19(20)27)25(36)33(17-8-9-17)26(37)32(22)18-6-4-5-16(12-18)29-14(2)34/h4-7,10-12,17,30H,8-9H2,1-3H3,(H,29,34)

> <PUBCHEM_IUPAC_INCHIKEY>
LIRYPHYGHXZJBZ-UHFFFAOYSA-N

> <PUBCHEM_XLOGP3_AA>
3.4

> <PUBCHEM_EXACT_MASS>
615.07788

> <PUBCHEM_MOLECULAR_FORMULA>
C26H23FIN5O4

> <PUBCHEM_MOLECULAR_WEIGHT>
615.4

> <PUBCHEM_OPENEYE_CAN_SMILES>
CC1=C2C(=C(N(C1=O)C)NC3=C(C=C(C=C3)I)F)C(=O)N(C(=O)N2C4=CC=CC(=C4)NC(=O)C)C5CC5

> <PUBCHEM_OPENEYE_ISO_SMILES>
CC1=C2C(=C(N(C1=O)C)NC3=C(C=C(C=C3)I)F)C(=O)N(C(=O)N2C4=CC=CC(=C4)NC(=O)C)C5CC5

> <PUBCHEM_CACTVS_TPSA>
102

> <PUBCHEM_MONOISOTOPIC_WEIGHT>
615.07788

> <PUBCHEM_TOTAL_CHARGE>
0

> <PUBCHEM_HEAVY_ATOM_COUNT>
37

> <PUBCHEM_ATOM_DEF_STEREO_COUNT>
0

> <PUBCHEM_ATOM_UDEF_STEREO_COUNT>
0

> <PUBCHEM_BOND_DEF_STEREO_COUNT>
0

> <PUBCHEM_BOND_UDEF_STEREO_COUNT>
0

> <PUBCHEM_ISOTOPIC_ATOM_COUNT>
0

> <PUBCHEM_COMPONENT_COUNT>
1

> <PUBCHEM_CACTVS_TAUTO_COUNT>
-1

> <PUBCHEM_COORDINATE_TYPE>
1
5
255

> <PUBCHEM_BONDANNOTATIONS>
15  17  8
17  18  8
17  19  8
18  20  8
20  22  8
21  24  8
21  25  8
24  28  8
25  29  8
27  31  8
27  32  8
28  30  8
29  30  8
31  33  8
32  34  8
33  35  8
34  35  8
7  15  8
7  16  8
8  16  8
8  18  8
9  19  8
9  22  8

$$$$
16222096
  -OEChem-11282409422D

 51 54  0     1  0  0  0  0  0999 V2000
   12.1847    2.8057    0.0000 I   0  0  0  0  0  0  0  0  0  0  0  0
   10.4526   -0.1943    0.0000 F   0  0  0  0  0  0  0  0  0  0  0  0
   10.4526   -2.1943    0.0000 F   0  0  0  0  0  0  0  0  0  0  0  0
    8.7206    2.8057    0.0000 F   0  0  0  0  0  0  0  0  0  0  0  0
    4.6390   -2.3673    0.0000 O   0  0  0  0  0  0  0  0  0  0  0  0
    6.9886    0.8057    0.0000 O   0  0  0  0  0  0  0  0  0  0  0  0
    6.1225   -0.6943    0.0000 N   0  0  0  0  0  0  0  0  0  0  0  0
    3.6730   -0.1766    0.0000 N   0  0  0  0  0  0  0  0  0  0  0  0
    8.7206    0.8057    0.0000 N   0  0  0  0  0  0  0  0  0  0  0  0
    4.8978   -1.4014    0.0000 C   0  0  0  0  0  0  0  0  0  0  0  0
    3.9318   -1.1426    0.0000 C   0  0  2  0  0  0  0  0  0  0  0  0
    5.1566   -0.4355    0.0000 C   0  0  0  0  0  0  0  0  0  0  0  0
    5.8637   -1.6602    0.0000 C   0  0  0  0  0  0  0  0  0  0  0  0
    3.2247   -1.8497    0.0000 C   0  0  0  0  0  0  0  0  0  0  0  0
    2.2588   -1.5909    0.0000 C   0  0  0  0  0  0  0  0  0  0  0  0
    2.7071    0.0822    0.0000 C   0  0  0  0  0  0  0  0  0  0  0  0
    2.0000   -0.6249    0.0000 C   0  0  0  0  0  0  0  0  0  0  0  0
    6.9886   -0.1943    0.0000 C   0  0  0  0  0  0  0  0  0  0  0  0
    7.8546   -0.6943    0.0000 C   0  0  0  0  0  0  0  0  0  0  0  0
    8.7206   -0.1943    0.0000 C   0  0  0  0  0  0  0  0  0  0  0  0
    7.8546   -1.6943    0.0000 C   0  0  0  0  0  0  0  0  0  0  0  0
    9.5866   -0.6943    0.0000 C   0  0  0  0  0  0  0  0  0  0  0  0
    8.7206   -2.1943    0.0000 C   0  0  0  0  0  0  0  0  0  0  0  0
    9.5866   -1.6943    0.0000 C   0  0  0  0  0  0  0  0  0  0  0  0
    9.5866    1.3057    0.0000 C   0  0  0  0  0  0  0  0  0  0  0  0
    9.5866    2.3057    0.0000 C   0  0  0  0  0  0  0  0  0  0  0  0
   10.4526    0.8057    0.0000 C   0  0  0  0  0  0  0  0  0  0  0  0
   10.4526    2.8057    0.0000 C   0  0  0  0  0  0  0  0  0  0  0  0
   11.3187    1.3057    0.0000 C   0  0  0  0  0  0  0  0  0  0  0  0
   11.3187    2.3057    0.0000 C   0  0  0  0  0  0  0  0  0  0  0  0
    4.1518   -1.9636    0.0000 H   0  0  0  0  0  0  0  0  0  0  0  0
    5.3171    0.1634    0.0000 H   0  0  0  0  0  0  0  0  0  0  0  0
    4.5577   -0.2750    0.0000 H   0  0  0  0  0  0  0  0  0  0  0  0
    5.7032   -2.2591    0.0000 H   0  0  0  0  0  0  0  0  0  0  0  0
    6.4626   -1.8207    0.0000 H   0  0  0  0  0  0  0  0  0  0  0  0
    2.9627   -2.4116    0.0000 H   0  0  0  0  0  0  0  0  0  0  0  0
    3.7326   -2.2053    0.0000 H   0  0  0  0  0  0  0  0  0  0  0  0
    4.1114    0.2618    0.0000 H   0  0  0  0  0  0  0  0  0  0  0  0
    1.6412   -1.6449    0.0000 H   0  0  0  0  0  0  0  0  0  0  0  0
    2.2048   -2.2085    0.0000 H   0  0  0  0  0  0  0  0  0  0  0  0
    2.9691    0.6441    0.0000 H   0  0  0  0  0  0  0  0  0  0  0  0
    2.1992    0.4378    0.0000 H   0  0  0  0  0  0  0  0  0  0  0  0
    1.6444   -0.1171    0.0000 H   0  0  0  0  0  0  0  0  0  0  0  0
    1.4381   -0.8870    0.0000 H   0  0  0  0  0  0  0  0  0  0  0  0
    5.0774   -2.8057    0.0000 H   0  0  0  0  0  0  0  0  0  0  0  0
    7.3176   -2.0043    0.0000 H   0  0  0  0  0  0  0  0  0  0  0  0
    8.7206   -2.8143    0.0000 H   0  0  0  0  0  0  0  0  0  0  0  0
    8.1837    1.1157    0.0000 H   0  0  0  0  0  0  0  0  0  0  0  0
   10.4526    0.1857    0.0000 H   0  0  0  0  0  0  0  0  0  0  0  0
   10.4526    3.4257    0.0000 H   0  0  0  0  0  0  0  0  0  0  0  0
   11.8556    0.9957    0.0000 H   0  0  0  0  0  0  0  0  0  0  0  0
  1 30  1  0  0  0  0
  2 22  1  0  0  0  0
  3 24  1  0  0  0  0
  4 26  1  0  0  0  0
  5 10  1  0  0  0  0
  5 45  1  0  0  0  0
  6 18  2  0  0  0  0
  7 12  1  0  0  0  0
  7 13  1  0  0  0  0
  7 18  1  0  0  0  0
  8 11  1  0  0  0  0
  8 16  1  0  0  0  0
  8 38  1  0  0  0  0
  9 20  1  0  0  0  0
  9 25  1  0  0  0  0
  9 48  1  0  0  0  0
 10 11  1  0  0  0  0
 10 12  1  0  0  0  0
 10 13  1  0  0  0  0
 11 14  1  0  0  0  0
 11 31  1  1  0  0  0
 12 32  1  0  0  0  0
 12 33  1  0  0  0  0
 13 34  1  0  0  0  0
 13 35  1  0  0  0  0
 14 15  1  0  0  0  0
 14 36  1  0  0  0  0
 14 37  1  0  0  0  0
 15 17  1  0  0  0  0
 15 39  1  0  0  0  0
 15 40  1  0  0  0  0
 16 17  1  0  0  0  0
 16 41  1  0  0  0  0
 16 42  1  0  0  0  0
 17 43  1  0  0  0  0
 17 44  1  0  0  0  0
 18 19  1  0  0  0  0
 19 20  2  0  0  0  0
 19 21  1  0  0  0  0
 20 22  1  0  0  0  0
 21 23  2  0  0  0  0
 21 46  1  0  0  0  0
 22 24  2  0  0  0  0
 23 24  1  0  0  0  0
 23 47  1  0  0  0  0
 25 26  2  0  0  0  0
 25 27  1  0  0  0  0
 26 28  1  0  0  0  0
 27 29  2  0  0  0  0
 27 49  1  0  0  0  0
 28 30  2  0  0  0  0
 28 50  1  0  0  0  0
 29 30  1  0  0  0  0
 29 51  1  0  0  0  0
M  END
> <PUBCHEM_COMPOUND_CID>
16222096

> <PUBCHEM_COMPOUND_CANONICALIZED>
1

> <PUBCHEM_CACTVS_COMPLEXITY>
624

> <PUBCHEM_CACTVS_HBOND_ACCEPTOR>
7

> <PUBCHEM_CACTVS_HBOND_DONOR>
3

> <PUBCHEM_CACTVS_ROTATABLE_BOND>
4

> <PUBCHEM_CACTVS_SUBSKEYS>
AAADceB7MYAAAgAAAAAAAAAAAABYAAAAAAA8YIAAAAAAAAABQAAAHwAwCAAADGzDmAwwwIPAAgCIAiVSUACCAAAlAgAIiIEIZMgKIHrA1ZGEYYhklgDYyceYyECOAAAAAAACAAAAAAAAAAQAAAAAAAAAAA==

> <PUBCHEM_IUPAC_OPENEYE_NAME>
[3,4-difluoro-2-(2-fluoro-4-iodo-anilino)phenyl]-[3-hydroxy-3-[(2S)-2-piperidyl]azetidin-1-yl]methanone

> <PUBCHEM_IUPAC_CAS_NAME>
[3,4-difluoro-2-(2-fluoro-4-iodoanilino)phenyl]-[3-hydroxy-3-[(2S)-2-piperidinyl]-1-azetidinyl]methanone

> <PUBCHEM_IUPAC_NAME_MARKUP>
[3,4-difluoro-2-(2-fluoro-4-iodoanilino)phenyl]-[3-hydroxy-3-[(2<I>S</I>)-piperidin-2-yl]azetidin-1-yl]methanone

> <PUBCHEM_IUPAC_NAME>
[3,4-difluoro-2-(2-fluoro-4-iodoanilino)phenyl]-[3-hydroxy-3-[(2S)-piperidin-2-yl]azetidin-1-yl]methanone

> <PUBCHEM_IUPAC_SYSTEMATIC_NAME>
[3,4-bis(fluoranyl)-2-[(2-fluoranyl-4-iodanyl-phenyl)amino]phenyl]-[3-oxidanyl-3-[(2S)-piperidin-2-yl]azetidin-1-yl]methanone

> <PUBCHEM_IUPAC_TRADITIONAL_NAME>
[3,4-difluoro-2-(2-fluoro-4-iodo-anilino)phenyl]-[3-hydroxy-3-[(2S)-2-piperidyl]azetidin-1-yl]methanone

> <PUBCHEM_IUPAC_INCHI>
InChI=1S/C21H21F3IN3O2/c22-14-6-5-13(19(18(14)24)27-16-7-4-12(25)9-15(16)23)20(29)28-10-21(30,11-28)17-3-1-2-8-26-17/h4-7,9,17,26-27,30H,1-3,8,10-11H2/t17-/m0/s1

> <PUBCHEM_IUPAC_INCHIKEY>
BSMCAPRUBJMWDF-KRWDZBQOSA-N

> <PUBCHEM_XLOGP3_AA>
3.9

> <PUBCHEM_EXACT_MASS>
531.06306

> <PUBCHEM_MOLECULAR_FORMULA>
C21H21F3IN3O2

> <PUBCHEM_MOLECULAR_WEIGHT>
531.3

> <PUBCHEM_OPENEYE_CAN_SMILES>
C1CCNC(C1)C2(CN(C2)C(=O)C3=C(C(=C(C=C3)F)F)NC4=C(C=C(C=C4)I)F)O

> <PUBCHEM_OPENEYE_ISO_SMILES>
C1CCN[C@@H](C1)C2(CN(C2)C(=O)C3=C(C(=C(C=C3)F)F)NC4=C(C=C(C=C4)I)F)O

> <PUBCHEM_CACTVS_TPSA>
64.6

> <PUBCHEM_MONOISOTOPIC_WEIGHT>
531.06306

> <PUBCHEM_TOTAL_CHARGE>
0

> <PUBCHEM_HEAVY_ATOM_COUNT>
30

> <PUBCHEM_ATOM_DEF_STEREO_COUNT>
1

> <PUBCHEM_ATOM_UDEF_STEREO_COUNT>
0

> <PUBCHEM_BOND_DEF_STEREO_COUNT>
0

> <PUBCHEM_BOND_UDEF_STEREO_COUNT>
0

> <PUBCHEM_ISOTOPIC_ATOM_COUNT>
0

> <PUBCHEM_COMPONENT_COUNT>
1

> <PUBCHEM_CACTVS_TAUTO_COUNT>
-1

> <PUBCHEM_COORDINATE_TYPE>
1
5
255

> <PUBCHEM_BONDANNOTATIONS>
11  31  5
19  20  8
19  21  8
20  22  8
21  23  8
22  24  8
23  24  8
25  26  8
25  27  8
26  28  8
27  29  8
28  30  8
29  30  8

$$$$
10127622
  -OEChem-11282409422D

 42 44  0     0  0  0  0  0  0999 V2000
    4.2690    5.1550    0.0000 Br  0  0  0  0  0  0  0  0  0  0  0  0
    2.5369    2.1550    0.0000 Cl  0  0  0  0  0  0  0  0  0  0  0  0
    6.0010    2.1550    0.0000 F   0  0  0  0  0  0  0  0  0  0  0  0
    3.4030   -2.3450    0.0000 O   0  0  0  0  0  0  0  0  0  0  0  0
    3.4030   -0.3450    0.0000 O   0  0  0  0  0  0  0  0  0  0  0  0
    2.5369   -4.8450    0.0000 O   0  0  0  0  0  0  0  0  0  0  0  0
    7.8133   -0.6497    0.0000 N   0  0  0  0  0  0  0  0  0  0  0  0
    4.2690    1.1550    0.0000 N   0  0  0  0  0  0  0  0  0  0  0  0
    7.8133    0.9597    0.0000 N   0  0  0  0  0  0  0  0  0  0  0  0
    4.2690   -1.8450    0.0000 N   0  0  0  0  0  0  0  0  0  0  0  0
    6.8671   -0.3450    0.0000 C   0  0  0  0  0  0  0  0  0  0  0  0
    6.8671    0.6550    0.0000 C   0  0  0  0  0  0  0  0  0  0  0  0
    5.1350    0.6550    0.0000 C   0  0  0  0  0  0  0  0  0  0  0  0
    5.1350   -0.3450    0.0000 C   0  0  0  0  0  0  0  0  0  0  0  0
    6.0010   -0.8450    0.0000 C   0  0  0  0  0  0  0  0  0  0  0  0
    6.0010    1.1550    0.0000 C   0  0  0  0  0  0  0  0  0  0  0  0
    8.3969    0.1550    0.0000 C   0  0  0  0  0  0  0  0  0  0  0  0
    8.1240   -1.6002    0.0000 C   0  0  0  0  0  0  0  0  0  0  0  0
    4.2690   -0.8450    0.0000 C   0  0  0  0  0  0  0  0  0  0  0  0
    4.2690    2.1550    0.0000 C   0  0  0  0  0  0  0  0  0  0  0  0
    3.4030    2.6550    0.0000 C   0  0  0  0  0  0  0  0  0  0  0  0
    5.1350    2.6550    0.0000 C   0  0  0  0  0  0  0  0  0  0  0  0
    3.4030    3.6550    0.0000 C   0  0  0  0  0  0  0  0  0  0  0  0
    5.1350    3.6550    0.0000 C   0  0  0  0  0  0  0  0  0  0  0  0
    4.2690    4.1550    0.0000 C   0  0  0  0  0  0  0  0  0  0  0  0
    3.4030   -3.3450    0.0000 C   0  0  0  0  0  0  0  0  0  0  0  0
    2.5369   -3.8450    0.0000 C   0  0  0  0  0  0  0  0  0  0  0  0
    6.0010   -1.4650    0.0000 H   0  0  0  0  0  0  0  0  0  0  0  0
    3.7320    0.8450    0.0000 H   0  0  0  0  0  0  0  0  0  0  0  0
    9.0169    0.1550    0.0000 H   0  0  0  0  0  0  0  0  0  0  0  0
    7.5346   -1.7929    0.0000 H   0  0  0  0  0  0  0  0  0  0  0  0
    8.3166   -2.1896    0.0000 H   0  0  0  0  0  0  0  0  0  0  0  0
    8.7133   -1.4076    0.0000 H   0  0  0  0  0  0  0  0  0  0  0  0
    5.6720    2.3450    0.0000 H   0  0  0  0  0  0  0  0  0  0  0  0
    4.8059   -2.1550    0.0000 H   0  0  0  0  0  0  0  0  0  0  0  0
    2.8660    3.9650    0.0000 H   0  0  0  0  0  0  0  0  0  0  0  0
    5.6720    3.9650    0.0000 H   0  0  0  0  0  0  0  0  0  0  0  0
    3.6150   -3.9276    0.0000 H   0  0  0  0  0  0  0  0  0  0  0  0
    4.0135   -3.2373    0.0000 H   0  0  0  0  0  0  0  0  0  0  0  0
    2.3249   -3.2624    0.0000 H   0  0  0  0  0  0  0  0  0  0  0  0
    1.9264   -3.9527    0.0000 H   0  0  0  0  0  0  0  0  0  0  0  0
    2.0000   -5.1550    0.0000 H   0  0  0  0  0  0  0  0  0  0  0  0
  1 25  1  0  0  0  0
  2 21  1  0  0  0  0
  3 16  1  0  0  0  0
  4 10  1  0  0  0  0
  4 26  1  0  0  0  0
  5 19  2  0  0  0  0
  6 27  1  0  0  0  0
  6 42  1  0  0  0  0
  7 11  1  0  0  0  0
  7 17  1  0  0  0  0
  7 18  1  0  0  0  0
  8 13  1  0  0  0  0
  8 20  1  0  0  0  0
  8 29  1  0  0  0  0
  9 12  1  0  0  0  0
  9 17  2  0  0  0  0
 10 19  1  0  0  0  0
 10 35  1  0  0  0  0
 11 12  2  0  0  0  0
 11 15  1  0  0  0  0
 12 16  1  0  0  0  0
 13 14  1  0  0  0  0
 13 16  2  0  0  0  0
 14 15  2  0  0  0  0
 14 19  1  0  0  0  0
 15 28  1  0  0  0  0
 17 30  1  0  0  0  0
 18 31  1  0  0  0  0
 18 32  1  0  0  0  0
 18 33  1  0  0  0  0
 20 21  2  0  0  0  0
 20 22  1  0  0  0  0
 21 23  1  0  0  0  0
 22 24  2  0  0  0  0
 22 34  1  0  0  0  0
 23 25  2  0  0  0  0
 23 36  1  0  0  0  0
 24 25  1  0  0  0  0
 24 37  1  0  0  0  0
 26 27  1  0  0  0  0
 26 38  1  0  0  0  0
 26 39  1  0  0  0  0
 27 40  1  0  0  0  0
 27 41  1  0  0  0  0
M  END
> <PUBCHEM_COMPOUND_CID>
10127622

> <PUBCHEM_COMPOUND_CANONICALIZED>
1

> <PUBCHEM_CACTVS_COMPLEXITY>
523

> <PUBCHEM_CACTVS_HBOND_ACCEPTOR>
6

> <PUBCHEM_CACTVS_HBOND_DONOR>
3

> <PUBCHEM_CACTVS_ROTATABLE_BOND>
6

> <PUBCHEM_CACTVS_SUBSKEYS>
AAADccB7sQAEEAAAAAAAAAAAAAAAAWAAAAAwYAAAAAAAAFgB9AAAHwJUCAABrAqhni430LfcEgCoAyVzdACCgC01F6Qp2CE4dviJePrB39HUJYhokALJy/cciQCeCACgQARCADAQAUCACIQAYAAAAAAAAA==

> <PUBCHEM_IUPAC_OPENEYE_NAME>
6-(4-bromo-2-chloro-anilino)-7-fluoro-N-(2-hydroxyethoxy)-3-methyl-benzimidazole-5-carboxamide

> <PUBCHEM_IUPAC_CAS_NAME>
6-(4-bromo-2-chloroanilino)-7-fluoro-N-(2-hydroxyethoxy)-3-methyl-5-benzimidazolecarboxamide

> <PUBCHEM_IUPAC_NAME_MARKUP>
6-(4-bromo-2-chloroanilino)-7-fluoro-<I>N</I>-(2-hydroxyethoxy)-3-methylbenzimidazole-5-carboxamide

> <PUBCHEM_IUPAC_NAME>
6-(4-bromo-2-chloroanilino)-7-fluoro-N-(2-hydroxyethoxy)-3-methylbenzimidazole-5-carboxamide

> <PUBCHEM_IUPAC_SYSTEMATIC_NAME>
6-[(4-bromanyl-2-chloranyl-phenyl)amino]-7-fluoranyl-N-(2-hydroxyethyloxy)-3-methyl-benzimidazole-5-carboxamide

> <PUBCHEM_IUPAC_TRADITIONAL_NAME>
6-(4-bromo-2-chloro-anilino)-7-fluoro-N-(2-hydroxyethoxy)-3-methyl-benzimidazole-5-carboxamide

> <PUBCHEM_IUPAC_INCHI>
InChI=1S/C17H15BrClFN4O3/c1-24-8-21-16-13(24)7-10(17(26)23-27-5-4-25)15(14(16)20)22-12-3-2-9(18)6-11(12)19/h2-3,6-8,22,25H,4-5H2,1H3,(H,23,26)

> <PUBCHEM_IUPAC_INCHIKEY>
CYOHGALHFOKKQC-UHFFFAOYSA-N

> <PUBCHEM_XLOGP3_AA>
3.6

> <PUBCHEM_EXACT_MASS>
456.00001

> <PUBCHEM_MOLECULAR_FORMULA>
C17H15BrClFN4O3

> <PUBCHEM_MOLECULAR_WEIGHT>
457.7

> <PUBCHEM_OPENEYE_CAN_SMILES>
CN1C=NC2=C1C=C(C(=C2F)NC3=C(C=C(C=C3)Br)Cl)C(=O)NOCCO

> <PUBCHEM_OPENEYE_ISO_SMILES>
CN1C=NC2=C1C=C(C(=C2F)NC3=C(C=C(C=C3)Br)Cl)C(=O)NOCCO

> <PUBCHEM_CACTVS_TPSA>
88.4

> <PUBCHEM_MONOISOTOPIC_WEIGHT>
456.00001

> <PUBCHEM_TOTAL_CHARGE>
0

> <PUBCHEM_HEAVY_ATOM_COUNT>
27

> <PUBCHEM_ATOM_DEF_STEREO_COUNT>
0

> <PUBCHEM_ATOM_UDEF_STEREO_COUNT>
0

> <PUBCHEM_BOND_DEF_STEREO_COUNT>
0

> <PUBCHEM_BOND_UDEF_STEREO_COUNT>
0

> <PUBCHEM_ISOTOPIC_ATOM_COUNT>
0

> <PUBCHEM_COMPONENT_COUNT>
1

> <PUBCHEM_CACTVS_TAUTO_COUNT>
-1

> <PUBCHEM_COORDINATE_TYPE>
1
5
255

> <PUBCHEM_BONDANNOTATIONS>
11  12  8
11  15  8
12  16  8
13  14  8
13  16  8
14  15  8
20  21  8
20  22  8
21  23  8
22  24  8
23  25  8
24  25  8
7  11  8
7  17  8
9  12  8
9  17  8

$$$$
9951490
  -OEChem-11282409422D

 45 47  0     1  0  0  0  0  0999 V2000
    6.0010    2.4400    0.0000 S   0  0  0  0  0  0  0  0  0  0  0  0
    2.5369   -1.5600    0.0000 O   0  0  0  0  0  0  0  0  0  0  0  0
    3.4030   -5.0600    0.0000 N   0  0  0  0  0  0  0  0  0  0  0  0
    6.8671    0.9400    0.0000 N   0  0  0  0  0  0  0  0  0  0  0  0
    6.0010    4.4400    0.0000 N   0  0  0  0  0  0  0  0  0  0  0  0
    3.4030    1.9400    0.0000 N   0  0  0  0  0  0  0  0  0  0  0  0
    3.4030   -2.0600    0.0000 C   0  0  3  0  0  0  0  0  0  0  0  0
    4.2690   -1.5600    0.0000 C   0  0  0  0  0  0  0  0  0  0  0  0
    3.4030   -3.0600    0.0000 C   0  0  0  0  0  0  0  0  0  0  0  0
    4.2690   -0.5600    0.0000 C   0  0  0  0  0  0  0  0  0  0  0  0
    5.1350   -0.0600    0.0000 C   0  0  0  0  0  0  0  0  0  0  0  0
    5.1350   -2.0600    0.0000 C   0  0  0  0  0  0  0  0  0  0  0  0
    6.0010   -0.5600    0.0000 C   0  0  0  0  0  0  0  0  0  0  0  0
    6.0010   -1.5600    0.0000 C   0  0  0  0  0  0  0  0  0  0  0  0
    5.1350    0.9400    0.0000 C   0  0  0  0  0  0  0  0  0  0  0  0
    4.2690   -3.5600    0.0000 C   0  0  0  0  0  0  0  0  0  0  0  0
    2.5369   -3.5600    0.0000 C   0  0  0  0  0  0  0  0  0  0  0  0
    6.0010    1.4400    0.0000 C   0  0  0  0  0  0  0  0  0  0  0  0
    4.2690   -4.5600    0.0000 C   0  0  0  0  0  0  0  0  0  0  0  0
    2.5369   -4.5600    0.0000 C   0  0  0  0  0  0  0  0  0  0  0  0
    6.8671    2.9400    0.0000 C   0  0  0  0  0  0  0  0  0  0  0  0
    6.8671    3.9400    0.0000 C   0  0  0  0  0  0  0  0  0  0  0  0
    7.7331    2.4400    0.0000 C   0  0  0  0  0  0  0  0  0  0  0  0
    4.2690    1.4400    0.0000 C   0  0  0  0  0  0  0  0  0  0  0  0
    7.7331    4.4400    0.0000 C   0  0  0  0  0  0  0  0  0  0  0  0
    8.5991    2.9400    0.0000 C   0  0  0  0  0  0  0  0  0  0  0  0
    8.5991    3.9400    0.0000 C   0  0  0  0  0  0  0  0  0  0  0  0
    3.4030   -1.4400    0.0000 H   0  0  0  0  0  0  0  0  0  0  0  0
    3.7320   -0.2500    0.0000 H   0  0  0  0  0  0  0  0  0  0  0  0
    5.1350   -2.6800    0.0000 H   0  0  0  0  0  0  0  0  0  0  0  0
    6.5380   -0.2500    0.0000 H   0  0  0  0  0  0  0  0  0  0  0  0
    6.5380   -1.8700    0.0000 H   0  0  0  0  0  0  0  0  0  0  0  0
    4.8059   -3.2500    0.0000 H   0  0  0  0  0  0  0  0  0  0  0  0
    2.0000   -3.2500    0.0000 H   0  0  0  0  0  0  0  0  0  0  0  0
    2.0000   -1.8700    0.0000 H   0  0  0  0  0  0  0  0  0  0  0  0
    4.8059   -4.8700    0.0000 H   0  0  0  0  0  0  0  0  0  0  0  0
    2.0000   -4.8700    0.0000 H   0  0  0  0  0  0  0  0  0  0  0  0
    7.7331    1.8200    0.0000 H   0  0  0  0  0  0  0  0  0  0  0  0
    7.7331    5.0600    0.0000 H   0  0  0  0  0  0  0  0  0  0  0  0
    7.4040    1.2500    0.0000 H   0  0  0  0  0  0  0  0  0  0  0  0
    6.8671    0.3200    0.0000 H   0  0  0  0  0  0  0  0  0  0  0  0
    9.1360    2.6300    0.0000 H   0  0  0  0  0  0  0  0  0  0  0  0
    9.1360    4.2500    0.0000 H   0  0  0  0  0  0  0  0  0  0  0  0
    6.0010    5.0600    0.0000 H   0  0  0  0  0  0  0  0  0  0  0  0
    5.4641    4.1300    0.0000 H   0  0  0  0  0  0  0  0  0  0  0  0
  1 18  1  0  0  0  0
  1 21  1  0  0  0  0
  2  7  1  0  0  0  0
  2 35  1  0  0  0  0
  3 19  2  0  0  0  0
  3 20  1  0  0  0  0
  4 18  1  0  0  0  0
  4 40  1  0  0  0  0
  4 41  1  0  0  0  0
  5 22  1  0  0  0  0
  5 44  1  0  0  0  0
  5 45  1  0  0  0  0
  6 24  3  0  0  0  0
  7  8  1  0  0  0  0
  7  9  1  0  0  0  0
  7 28  1  0  0  0  0
  8 10  2  0  0  0  0
  8 12  1  0  0  0  0
  9 16  2  0  0  0  0
  9 17  1  0  0  0  0
 10 11  1  0  0  0  0
 10 29  1  0  0  0  0
 11 13  2  0  0  0  0
 11 15  1  0  0  0  0
 12 14  2  0  0  0  0
 12 30  1  0  0  0  0
 13 14  1  0  0  0  0
 13 31  1  0  0  0  0
 14 32  1  0  0  0  0
 15 18  2  0  0  0  0
 15 24  1  0  0  0  0
 16 19  1  0  0  0  0
 16 33  1  0  0  0  0
 17 20  2  0  0  0  0
 17 34  1  0  0  0  0
 19 36  1  0  0  0  0
 20 37  1  0  0  0  0
 21 22  1  0  0  0  0
 21 23  2  0  0  0  0
 22 25  2  0  0  0  0
 23 26  1  0  0  0  0
 23 38  1  0  0  0  0
 25 27  1  0  0  0  0
 25 39  1  0  0  0  0
 26 27  2  0  0  0  0
 26 42  1  0  0  0  0
 27 43  1  0  0  0  0
M  END
> <PUBCHEM_COMPOUND_CID>
9951490

> <PUBCHEM_COMPOUND_CANONICALIZED>
1

> <PUBCHEM_CACTVS_COMPLEXITY>
566

> <PUBCHEM_CACTVS_HBOND_ACCEPTOR>
6

> <PUBCHEM_CACTVS_HBOND_DONOR>
3

> <PUBCHEM_CACTVS_ROTATABLE_BOND>
5

> <PUBCHEM_CACTVS_SUBSKEYS>
AAADceB7oABAAAAAAAAAAAAAAAAAAAAAAAA8YIAAAAAAAAAB0AAAHgQQCAAADBzh2gY8wZJIEgiwBjRnRACigCBxCjAI2Dw4bJgItmLgkZGEcAhk0AHI2A+wwOAOAAACAAAAAQAAAAQAAAACAAAAAAAAAA==

> <PUBCHEM_IUPAC_OPENEYE_NAME>
(Z)-3-amino-3-(2-aminophenyl)sulfanyl-2-[3-[hydroxy(4-pyridyl)methyl]phenyl]prop-2-enenitrile

> <PUBCHEM_IUPAC_CAS_NAME>
(Z)-3-amino-3-[(2-aminophenyl)thio]-2-[3-[hydroxy(pyridin-4-yl)methyl]phenyl]-2-propenenitrile

> <PUBCHEM_IUPAC_NAME_MARKUP>
(<I>Z</I>)-3-amino-3-(2-aminophenyl)sulfanyl-2-[3-[hydroxy(pyridin-4-yl)methyl]phenyl]prop-2-enenitrile

> <PUBCHEM_IUPAC_NAME>
(Z)-3-amino-3-(2-aminophenyl)sulfanyl-2-[3-[hydroxy(pyridin-4-yl)methyl]phenyl]prop-2-enenitrile

> <PUBCHEM_IUPAC_SYSTEMATIC_NAME>
(Z)-3-(2-aminophenyl)sulfanyl-3-azanyl-2-[3-[oxidanyl(pyridin-4-yl)methyl]phenyl]prop-2-enenitrile

> <PUBCHEM_IUPAC_TRADITIONAL_NAME>
(Z)-3-amino-3-[(2-aminophenyl)thio]-2-[3-[hydroxy(4-pyridyl)methyl]phenyl]acrylonitrile

> <PUBCHEM_IUPAC_INCHI>
InChI=1S/C21H18N4OS/c22-13-17(21(24)27-19-7-2-1-6-18(19)23)15-4-3-5-16(12-15)20(26)14-8-10-25-11-9-14/h1-12,20,26H,23-24H2/b21-17+

> <PUBCHEM_IUPAC_INCHIKEY>
NHBMKTBZZSJUGA-HEHNFIMWSA-N

> <PUBCHEM_XLOGP3_AA>
2.5

> <PUBCHEM_EXACT_MASS>
374.12013238

> <PUBCHEM_MOLECULAR_FORMULA>
C21H18N4OS

> <PUBCHEM_MOLECULAR_WEIGHT>
374.5

> <PUBCHEM_OPENEYE_CAN_SMILES>
C1=CC=C(C(=C1)N)SC(=C(C#N)C2=CC=CC(=C2)C(C3=CC=NC=C3)O)N

> <PUBCHEM_OPENEYE_ISO_SMILES>
C1=CC=C(C(=C1)N)S/C(=C(\C#N)/C2=CC=CC(=C2)C(C3=CC=NC=C3)O)/N

> <PUBCHEM_CACTVS_TPSA>
134

> <PUBCHEM_MONOISOTOPIC_WEIGHT>
374.12013238

> <PUBCHEM_TOTAL_CHARGE>
0

> <PUBCHEM_HEAVY_ATOM_COUNT>
27

> <PUBCHEM_ATOM_DEF_STEREO_COUNT>
0

> <PUBCHEM_ATOM_UDEF_STEREO_COUNT>
1

> <PUBCHEM_BOND_DEF_STEREO_COUNT>
1

> <PUBCHEM_BOND_UDEF_STEREO_COUNT>
0

> <PUBCHEM_ISOTOPIC_ATOM_COUNT>
0

> <PUBCHEM_COMPONENT_COUNT>
1

> <PUBCHEM_CACTVS_TAUTO_COUNT>
-1

> <PUBCHEM_COORDINATE_TYPE>
1
5
255

> <PUBCHEM_BONDANNOTATIONS>
10  11  8
11  13  8
12  14  8
13  14  8
16  19  8
17  20  8
7  2  3
21  22  8
21  23  8
22  25  8
23  26  8
25  27  8
26  27  8
3  19  8
3  20  8
8  10  8
8  12  8
9  16  8
9  17  8

$$$$
24963252
  -OEChem-11282409422D

 43 45  0     1  0  0  0  0  0999 V2000
    2.0000    3.0000    0.0000 I   0  0  0  0  0  0  0  0  0  0  0  0
    3.7320   -0.0000    0.0000 F   0  0  0  0  0  0  0  0  0  0  0  0
    5.4641    3.0000    0.0000 F   0  0  0  0  0  0  0  0  0  0  0  0
    9.8660   -1.4725    0.0000 O   0  0  0  0  0  0  0  0  0  0  0  0
    7.2125    1.0346    0.0000 O   0  0  0  0  0  0  0  0  0  0  0  0
   11.5942   -0.4658    0.0000 O   0  0  0  0  0  0  0  0  0  0  0  0
    3.7320   -2.0000    0.0000 O   0  0  0  0  0  0  0  0  0  0  0  0
    8.1301   -0.4792    0.0000 N   0  0  0  0  0  0  0  0  0  0  0  0
    5.4641   -2.0000    0.0000 N   0  0  0  0  0  0  0  0  0  0  0  0
    7.2241   -2.0347    0.0000 N   0  0  0  0  0  0  0  0  0  0  0  0
    5.4641    1.0000    0.0000 N   0  0  0  0  0  0  0  0  0  0  0  0
    6.3301   -0.5000    0.0000 C   0  0  0  0  0  0  0  0  0  0  0  0
    8.9942    0.0241    0.0000 C   0  0  0  0  0  0  0  0  0  0  0  0
    6.3301   -1.5000    0.0000 C   0  0  0  0  0  0  0  0  0  0  0  0
    9.8622   -0.4725    0.0000 C   0  0  2  0  0  0  0  0  0  0  0  0
    7.2241    0.0347    0.0000 C   0  0  0  0  0  0  0  0  0  0  0  0
    5.4641   -0.0000    0.0000 C   0  0  0  0  0  0  0  0  0  0  0  0
    8.1301   -1.5208    0.0000 C   0  0  0  0  0  0  0  0  0  0  0  0
    4.5981   -0.5000    0.0000 C   0  0  0  0  0  0  0  0  0  0  0  0
    4.5981   -1.5000    0.0000 C   0  0  0  0  0  0  0  0  0  0  0  0
   10.7263    0.0308    0.0000 C   0  0  0  0  0  0  0  0  0  0  0  0
    5.4641   -3.0000    0.0000 C   0  0  0  0  0  0  0  0  0  0  0  0
    4.5981    1.5000    0.0000 C   0  0  0  0  0  0  0  0  0  0  0  0
    4.5981    2.5000    0.0000 C   0  0  0  0  0  0  0  0  0  0  0  0
    3.7320    1.0000    0.0000 C   0  0  0  0  0  0  0  0  0  0  0  0
    3.7320    3.0000    0.0000 C   0  0  0  0  0  0  0  0  0  0  0  0
    2.8660    1.5000    0.0000 C   0  0  0  0  0  0  0  0  0  0  0  0
    2.8660    2.5000    0.0000 C   0  0  0  0  0  0  0  0  0  0  0  0
    9.3909    0.5006    0.0000 H   0  0  0  0  0  0  0  0  0  0  0  0
    8.5939    0.4976    0.0000 H   0  0  0  0  0  0  0  0  0  0  0  0
   10.4003   -0.7804    0.0000 H   0  0  0  0  0  0  0  0  0  0  0  0
    8.6659   -1.8329    0.0000 H   0  0  0  0  0  0  0  0  0  0  0  0
   11.1230    0.5073    0.0000 H   0  0  0  0  0  0  0  0  0  0  0  0
   10.3259    0.5042    0.0000 H   0  0  0  0  0  0  0  0  0  0  0  0
    6.0010    1.3100    0.0000 H   0  0  0  0  0  0  0  0  0  0  0  0
    4.8441   -3.0000    0.0000 H   0  0  0  0  0  0  0  0  0  0  0  0
    5.4641   -3.6200    0.0000 H   0  0  0  0  0  0  0  0  0  0  0  0
    6.0841   -3.0000    0.0000 H   0  0  0  0  0  0  0  0  0  0  0  0
   10.4042   -1.7804    0.0000 H   0  0  0  0  0  0  0  0  0  0  0  0
    3.7320    0.3800    0.0000 H   0  0  0  0  0  0  0  0  0  0  0  0
   12.1299   -0.1538    0.0000 H   0  0  0  0  0  0  0  0  0  0  0  0
    3.7320    3.6200    0.0000 H   0  0  0  0  0  0  0  0  0  0  0  0
    2.3291    1.1900    0.0000 H   0  0  0  0  0  0  0  0  0  0  0  0
  1 28  1  0  0  0  0
  2 19  1  0  0  0  0
  3 24  1  0  0  0  0
 15  4  1  6  0  0  0
  4 39  1  0  0  0  0
  5 16  2  0  0  0  0
  6 21  1  0  0  0  0
  6 41  1  0  0  0  0
  7 20  2  0  0  0  0
  8 13  1  0  0  0  0
  8 16  1  0  0  0  0
  8 18  1  0  0  0  0
  9 14  1  0  0  0  0
  9 20  1  0  0  0  0
  9 22  1  0  0  0  0
 10 14  1  0  0  0  0
 10 18  2  0  0  0  0
 11 17  1  0  0  0  0
 11 23  1  0  0  0  0
 11 35  1  0  0  0  0
 12 14  2  0  0  0  0
 12 16  1  0  0  0  0
 12 17  1  0  0  0  0
 13 15  1  0  0  0  0
 13 29  1  0  0  0  0
 13 30  1  0  0  0  0
 15 21  1  0  0  0  0
 15 31  1  0  0  0  0
 17 19  2  0  0  0  0
 18 32  1  0  0  0  0
 19 20  1  0  0  0  0
 21 33  1  0  0  0  0
 21 34  1  0  0  0  0
 22 36  1  0  0  0  0
 22 37  1  0  0  0  0
 22 38  1  0  0  0  0
 23 24  2  0  0  0  0
 23 25  1  0  0  0  0
 24 26  1  0  0  0  0
 25 27  2  0  0  0  0
 25 40  1  0  0  0  0
 26 28  2  0  0  0  0
 26 42  1  0  0  0  0
 27 28  1  0  0  0  0
 27 43  1  0  0  0  0
M  END
> <PUBCHEM_COMPOUND_CID>
24963252

> <PUBCHEM_COMPOUND_CANONICALIZED>
1

> <PUBCHEM_CACTVS_COMPLEXITY>
772

> <PUBCHEM_CACTVS_HBOND_ACCEPTOR>
8

> <PUBCHEM_CACTVS_HBOND_DONOR>
3

> <PUBCHEM_CACTVS_ROTATABLE_BOND>
5

> <PUBCHEM_CACTVS_SUBSKEYS>
AAADccB7uYAAAgAAAAAAAAAAAAAAAAAAAAAwQIAAAAAAAACBAAAAHwAwCAAADBzjkA4zwIPAAgCoAiVTdACCAAEhAgAJiAEIZMiLMCrA2ZGEYAhilwLZyUcQAAAAAAAAAAAAAAAAAAAAAAAAAAAAAAAAAA==

> <PUBCHEM_IUPAC_OPENEYE_NAME>
3-[(2R)-2,3-dihydroxypropyl]-6-fluoro-5-(2-fluoro-4-iodo-anilino)-8-methyl-pyrido[2,3-d]pyrimidine-4,7-dione

> <PUBCHEM_IUPAC_CAS_NAME>
3-[(2R)-2,3-dihydroxypropyl]-6-fluoro-5-(2-fluoro-4-iodoanilino)-8-methylpyrido[2,3-d]pyrimidine-4,7-dione

> <PUBCHEM_IUPAC_NAME_MARKUP>
3-[(2<I>R</I>)-2,3-dihydroxypropyl]-6-fluoro-5-(2-fluoro-4-iodoanilino)-8-methylpyrido[2,3-d]pyrimidine-4,7-dione

> <PUBCHEM_IUPAC_NAME>
3-[(2R)-2,3-dihydroxypropyl]-6-fluoro-5-(2-fluoro-4-iodoanilino)-8-methylpyrido[2,3-d]pyrimidine-4,7-dione

> <PUBCHEM_IUPAC_SYSTEMATIC_NAME>
3-[(2R)-2,3-bis(oxidanyl)propyl]-6-fluoranyl-5-[(2-fluoranyl-4-iodanyl-phenyl)amino]-8-methyl-pyrido[2,3-d]pyrimidine-4,7-dione

> <PUBCHEM_IUPAC_TRADITIONAL_NAME>
3-[(2R)-2,3-dihydroxypropyl]-6-fluoro-5-(2-fluoro-4-iodo-anilino)-8-methyl-pyrido[2,3-d]pyrimidine-4,7-quinone

> <PUBCHEM_IUPAC_INCHI>
InChI=1S/C17H15F2IN4O4/c1-23-15-12(16(27)24(7-21-15)5-9(26)6-25)14(13(19)17(23)28)22-11-3-2-8(20)4-10(11)18/h2-4,7,9,22,25-26H,5-6H2,1H3/t9-/m1/s1

> <PUBCHEM_IUPAC_INCHIKEY>
RCLQNICOARASSR-SECBINFHSA-N

> <PUBCHEM_XLOGP3_AA>
0.9

> <PUBCHEM_EXACT_MASS>
504.01061

> <PUBCHEM_MOLECULAR_FORMULA>
C17H15F2IN4O4

> <PUBCHEM_MOLECULAR_WEIGHT>
504.23

> <PUBCHEM_OPENEYE_CAN_SMILES>
CN1C2=C(C(=C(C1=O)F)NC3=C(C=C(C=C3)I)F)C(=O)N(C=N2)CC(CO)O

> <PUBCHEM_OPENEYE_ISO_SMILES>
CN1C2=C(C(=C(C1=O)F)NC3=C(C=C(C=C3)I)F)C(=O)N(C=N2)C[C@H](CO)O

> <PUBCHEM_CACTVS_TPSA>
106

> <PUBCHEM_MONOISOTOPIC_WEIGHT>
504.01061

> <PUBCHEM_TOTAL_CHARGE>
0

> <PUBCHEM_HEAVY_ATOM_COUNT>
28

> <PUBCHEM_ATOM_DEF_STEREO_COUNT>
1

> <PUBCHEM_ATOM_UDEF_STEREO_COUNT>
0

> <PUBCHEM_BOND_DEF_STEREO_COUNT>
0

> <PUBCHEM_BOND_UDEF_STEREO_COUNT>
0

> <PUBCHEM_ISOTOPIC_ATOM_COUNT>
0

> <PUBCHEM_COMPONENT_COUNT>
1

> <PUBCHEM_CACTVS_TAUTO_COUNT>
-1

> <PUBCHEM_COORDINATE_TYPE>
1
5
255

> <PUBCHEM_BONDANNOTATIONS>
10  14  8
10  18  8
12  14  8
12  16  8
12  17  8
17  19  8
19  20  8
23  24  8
23  25  8
24  26  8
25  27  8
26  28  8
27  28  8
15  4  6
8  16  8
8  18  8
9  14  8
9  20  8

$$$$
389898
  -OEChem-11282409422D

 28 30  0     0  0  0  0  0  0999 V2000
    3.5827    1.3318    0.0000 Cl  0  0  0  0  0  0  0  0  0  0  0  0
    2.4612    0.7167    0.0000 O   0  0  0  0  0  0  0  0  0  0  0  0
    4.2213   -2.3318    0.0000 O   0  0  0  0  0  0  0  0  0  0  0  0
    5.3147   -1.6682    0.0000 O   0  0  0  0  0  0  0  0  0  0  0  0
    5.3147    2.3318    0.0000 O   0  0  0  0  0  0  0  0  0  0  0  0
    3.5827   -0.6682    0.0000 N   0  0  0  0  0  0  0  0  0  0  0  0
    2.0000   -1.0046    0.0000 C   0  0  0  0  0  0  0  0  0  0  0  0
    2.5000   -1.8706    0.0000 C   0  0  0  0  0  0  0  0  0  0  0  0
    4.4487   -0.1682    0.0000 C   0  0  0  0  0  0  0  0  0  0  0  0
    2.6691   -0.2614    0.0000 C   0  0  0  0  0  0  0  0  0  0  0  0
    3.4782   -1.6627    0.0000 C   0  0  0  0  0  0  0  0  0  0  0  0
    5.3147   -0.6682    0.0000 C   0  0  0  0  0  0  0  0  0  0  0  0
    6.1808   -0.1682    0.0000 C   0  0  0  0  0  0  0  0  0  0  0  0
    6.1808    0.8318    0.0000 C   0  0  0  0  0  0  0  0  0  0  0  0
    4.4487    0.8318    0.0000 C   0  0  0  0  0  0  0  0  0  0  0  0
    5.3147    1.3318    0.0000 C   0  0  0  0  0  0  0  0  0  0  0  0
    7.0747   -0.7028    0.0000 C   0  0  0  0  0  0  0  0  0  0  0  0
    7.0747    1.3665    0.0000 C   0  0  0  0  0  0  0  0  0  0  0  0
    7.9808   -0.1890    0.0000 C   0  0  0  0  0  0  0  0  0  0  0  0
    7.9808    0.8526    0.0000 C   0  0  0  0  0  0  0  0  0  0  0  0
    1.5851   -0.5438    0.0000 H   0  0  0  0  0  0  0  0  0  0  0  0
    1.4984   -1.3690    0.0000 H   0  0  0  0  0  0  0  0  0  0  0  0
    1.9336   -2.1228    0.0000 H   0  0  0  0  0  0  0  0  0  0  0  0
    2.6916   -2.4603    0.0000 H   0  0  0  0  0  0  0  0  0  0  0  0
    7.0675   -1.3228    0.0000 H   0  0  0  0  0  0  0  0  0  0  0  0
    7.0675    1.9864    0.0000 H   0  0  0  0  0  0  0  0  0  0  0  0
    8.5165   -0.5011    0.0000 H   0  0  0  0  0  0  0  0  0  0  0  0
    8.5165    1.1647    0.0000 H   0  0  0  0  0  0  0  0  0  0  0  0
  1 15  1  0  0  0  0
  2 10  2  0  0  0  0
  3 11  2  0  0  0  0
  4 12  2  0  0  0  0
  5 16  2  0  0  0  0
  6  9  1  0  0  0  0
  6 10  1  0  0  0  0
  6 11  1  0  0  0  0
  7  8  1  0  0  0  0
  7 10  1  0  0  0  0
  7 21  1  0  0  0  0
  7 22  1  0  0  0  0
  8 11  1  0  0  0  0
  8 23  1  0  0  0  0
  8 24  1  0  0  0  0
  9 12  1  0  0  0  0
  9 15  2  0  0  0  0
 12 13  1  0  0  0  0
 13 14  1  0  0  0  0
 13 17  2  0  0  0  0
 14 16  1  0  0  0  0
 14 18  2  0  0  0  0
 15 16  1  0  0  0  0
 17 19  1  0  0  0  0
 17 25  1  0  0  0  0
 18 20  1  0  0  0  0
 18 26  1  0  0  0  0
 19 20  2  0  0  0  0
 19 27  1  0  0  0  0
 20 28  1  0  0  0  0
M  END
> <PUBCHEM_COMPOUND_CID>
389898

> <PUBCHEM_COMPOUND_CANONICALIZED>
1

> <PUBCHEM_CACTVS_COMPLEXITY>
550

> <PUBCHEM_CACTVS_HBOND_ACCEPTOR>
4

> <PUBCHEM_CACTVS_HBOND_DONOR>
0

> <PUBCHEM_CACTVS_ROTATABLE_BOND>
1

> <PUBCHEM_CACTVS_SUBSKEYS>
AAADccByOAAEAAAAAAAAAAAAAAAAAWAAAAAwQAAAAAAAAACBAAAAHgIAAAAADA6BmAAwAIMAAACIAqVSUAACAAAkAAAIiAGAAshIIDKBlTGEIQAghCCIiccdiYCOgAAAAAAQAAAAAAAAACAAAAAAAAAAAA==

> <PUBCHEM_IUPAC_OPENEYE_NAME>
1-(3-chloro-1,4-dioxo-2-naphthyl)pyrrolidine-2,5-dione

> <PUBCHEM_IUPAC_CAS_NAME>
1-(3-chloro-1,4-dioxo-2-naphthalenyl)pyrrolidine-2,5-dione

> <PUBCHEM_IUPAC_NAME_MARKUP>
1-(3-chloro-1,4-dioxonaphthalen-2-yl)pyrrolidine-2,5-dione

> <PUBCHEM_IUPAC_NAME>
1-(3-chloro-1,4-dioxonaphthalen-2-yl)pyrrolidine-2,5-dione

> <PUBCHEM_IUPAC_SYSTEMATIC_NAME>
1-[3-chloranyl-1,4-bis(oxidanylidene)naphthalen-2-yl]pyrrolidine-2,5-dione

> <PUBCHEM_IUPAC_TRADITIONAL_NAME>
1-(3-chloro-1,4-diketo-2-naphthyl)pyrrolidine-2,5-quinone

> <PUBCHEM_IUPAC_INCHI>
InChI=1S/C14H8ClNO4/c15-11-12(16-9(17)5-6-10(16)18)14(20)8-4-2-1-3-7(8)13(11)19/h1-4H,5-6H2

> <PUBCHEM_IUPAC_INCHIKEY>
GYQSWJNGTWVFOL-UHFFFAOYSA-N

> <PUBCHEM_XLOGP3_AA>
1.3

> <PUBCHEM_EXACT_MASS>
289.0141854

> <PUBCHEM_MOLECULAR_FORMULA>
C14H8ClNO4

> <PUBCHEM_MOLECULAR_WEIGHT>
289.67

> <PUBCHEM_OPENEYE_CAN_SMILES>
C1CC(=O)N(C1=O)C2=C(C(=O)C3=CC=CC=C3C2=O)Cl

> <PUBCHEM_OPENEYE_ISO_SMILES>
C1CC(=O)N(C1=O)C2=C(C(=O)C3=CC=CC=C3C2=O)Cl

> <PUBCHEM_CACTVS_TPSA>
71.5

> <PUBCHEM_MONOISOTOPIC_WEIGHT>
289.0141854

> <PUBCHEM_TOTAL_CHARGE>
0

> <PUBCHEM_HEAVY_ATOM_COUNT>
20

> <PUBCHEM_ATOM_DEF_STEREO_COUNT>
0

> <PUBCHEM_ATOM_UDEF_STEREO_COUNT>
0

> <PUBCHEM_BOND_DEF_STEREO_COUNT>
0

> <PUBCHEM_BOND_UDEF_STEREO_COUNT>
0

> <PUBCHEM_ISOTOPIC_ATOM_COUNT>
0

> <PUBCHEM_COMPONENT_COUNT>
1

> <PUBCHEM_CACTVS_TAUTO_COUNT>
-1

> <PUBCHEM_COORDINATE_TYPE>
1
5
255

> <PUBCHEM_BONDANNOTATIONS>
13  14  8
13  17  8
14  18  8
17  19  8
18  20  8
19  20  8

$$$$
135742497
  -OEChem-11282409422D

 58 61  0     0  0  0  0  0  0999 V2000
    8.8600   -2.2539    0.0000 O   0  0  0  0  0  0  0  0  0  0  0  0
    3.7320   -4.2539    0.0000 O   0  0  0  0  0  0  0  0  0  0  0  0
    7.2764   -3.0587    0.0000 N   0  0  0  0  0  0  0  0  0  0  0  0
    6.9192    0.2456    0.0000 N   0  0  0  0  0  0  0  0  0  0  0  0
    9.8082    3.5096    0.0000 N   0  0  0  0  0  0  0  0  0  0  0  0
    2.8660   -2.7539    0.0000 N   0  0  0  0  0  0  0  0  0  0  0  0
    6.3301   -1.7539    0.0000 C   0  0  0  0  0  0  0  0  0  0  0  0
    7.2764   -1.4492    0.0000 C   0  0  0  0  0  0  0  0  0  0  0  0
    6.3301   -2.7539    0.0000 C   0  0  0  0  0  0  0  0  0  0  0  0
    7.8600   -2.2539    0.0000 C   0  0  0  0  0  0  0  0  0  0  0  0
    7.5870   -0.4987    0.0000 C   0  0  0  0  0  0  0  0  0  0  0  0
    5.4641   -1.2539    0.0000 C   0  0  0  0  0  0  0  0  0  0  0  0
    5.4641   -3.2539    0.0000 C   0  0  0  0  0  0  0  0  0  0  0  0
    4.5981   -2.7539    0.0000 C   0  0  0  0  0  0  0  0  0  0  0  0
    8.5655   -0.2925    0.0000 C   0  0  0  0  0  0  0  0  0  0  0  0
    4.5981   -1.7539    0.0000 C   0  0  0  0  0  0  0  0  0  0  0  0
    8.5190    2.3529    0.0000 C   0  0  0  0  0  0  0  0  0  0  0  0
    7.2298    1.1962    0.0000 C   0  0  0  0  0  0  0  0  0  0  0  0
    9.4975    2.5591    0.0000 C   0  0  0  0  0  0  0  0  0  0  0  0
    8.2083    1.4024    0.0000 C   0  0  0  0  0  0  0  0  0  0  0  0
    9.2334   -1.0368    0.0000 C   0  0  0  0  0  0  0  0  0  0  0  0
    8.8762    0.6581    0.0000 C   0  0  0  0  0  0  0  0  0  0  0  0
    3.7320   -3.2539    0.0000 C   0  0  0  0  0  0  0  0  0  0  0  0
    7.8512    3.0972    0.0000 C   0  0  0  0  0  0  0  0  0  0  0  0
    6.5620    1.9404    0.0000 C   0  0  0  0  0  0  0  0  0  0  0  0
    6.8726    2.8910    0.0000 C   0  0  0  0  0  0  0  0  0  0  0  0
   10.2119   -0.8305    0.0000 C   0  0  0  0  0  0  0  0  0  0  0  0
    9.8547    0.8643    0.0000 C   0  0  0  0  0  0  0  0  0  0  0  0
   10.7867    3.7158    0.0000 C   0  0  0  0  0  0  0  0  0  0  0  0
    9.1403    4.2539    0.0000 C   0  0  0  0  0  0  0  0  0  0  0  0
   10.5225    0.1200    0.0000 C   0  0  0  0  0  0  0  0  0  0  0  0
    2.0000   -3.2539    0.0000 C   0  0  0  0  0  0  0  0  0  0  0  0
    7.4690   -3.6480    0.0000 H   0  0  0  0  0  0  0  0  0  0  0  0
    5.4641   -0.6339    0.0000 H   0  0  0  0  0  0  0  0  0  0  0  0
    5.4641   -3.8739    0.0000 H   0  0  0  0  0  0  0  0  0  0  0  0
    4.0611   -1.4439    0.0000 H   0  0  0  0  0  0  0  0  0  0  0  0
    9.5181    1.9394    0.0000 H   0  0  0  0  0  0  0  0  0  0  0  0
   10.1113    2.4718    0.0000 H   0  0  0  0  0  0  0  0  0  0  0  0
    8.6224    0.9409    0.0000 H   0  0  0  0  0  0  0  0  0  0  0  0
    9.0407   -1.6261    0.0000 H   0  0  0  0  0  0  0  0  0  0  0  0
    8.4621    1.1195    0.0000 H   0  0  0  0  0  0  0  0  0  0  0  0
    8.0438    3.6865    0.0000 H   0  0  0  0  0  0  0  0  0  0  0  0
    5.9553    1.8126    0.0000 H   0  0  0  0  0  0  0  0  0  0  0  0
    9.1700   -2.7909    0.0000 H   0  0  0  0  0  0  0  0  0  0  0  0
    6.4586    3.3524    0.0000 H   0  0  0  0  0  0  0  0  0  0  0  0
   10.6259   -1.2920    0.0000 H   0  0  0  0  0  0  0  0  0  0  0  0
   10.0473    1.4536    0.0000 H   0  0  0  0  0  0  0  0  0  0  0  0
   10.9145    3.1092    0.0000 H   0  0  0  0  0  0  0  0  0  0  0  0
   11.3933    3.8437    0.0000 H   0  0  0  0  0  0  0  0  0  0  0  0
   10.6588    4.3225    0.0000 H   0  0  0  0  0  0  0  0  0  0  0  0
    9.6018    4.6680    0.0000 H   0  0  0  0  0  0  0  0  0  0  0  0
    8.7263    4.7154    0.0000 H   0  0  0  0  0  0  0  0  0  0  0  0
    8.6788    3.8399    0.0000 H   0  0  0  0  0  0  0  0  0  0  0  0
   11.1292    0.2478    0.0000 H   0  0  0  0  0  0  0  0  0  0  0  0
    2.8660   -2.1339    0.0000 H   0  0  0  0  0  0  0  0  0  0  0  0
    1.6900   -2.7170    0.0000 H   0  0  0  0  0  0  0  0  0  0  0  0
    1.4631   -3.5639    0.0000 H   0  0  0  0  0  0  0  0  0  0  0  0
    2.3100   -3.7909    0.0000 H   0  0  0  0  0  0  0  0  0  0  0  0
  1 10  1  0  0  0  0
  1 44  1  0  0  0  0
  2 23  2  0  0  0  0
  3  9  1  0  0  0  0
  3 10  1  0  0  0  0
  3 33  1  0  0  0  0
  4 11  2  0  0  0  0
  4 18  1  0  0  0  0
  5 19  1  0  0  0  0
  5 29  1  0  0  0  0
  5 30  1  0  0  0  0
  6 23  1  0  0  0  0
  6 32  1  0  0  0  0
  6 55  1  0  0  0  0
  7  8  1  0  0  0  0
  7  9  2  0  0  0  0
  7 12  1  0  0  0  0
  8 10  2  0  0  0  0
  8 11  1  0  0  0  0
  9 13  1  0  0  0  0
 11 15  1  0  0  0  0
 12 16  2  0  0  0  0
 12 34  1  0  0  0  0
 13 14  2  0  0  0  0
 13 35  1  0  0  0  0
 14 16  1  0  0  0  0
 14 23  1  0  0  0  0
 15 21  2  0  0  0  0
 15 22  1  0  0  0  0
 16 36  1  0  0  0  0
 17 19  1  0  0  0  0
 17 20  2  0  0  0  0
 17 24  1  0  0  0  0
 18 20  1  0  0  0  0
 18 25  2  0  0  0  0
 19 37  1  0  0  0  0
 19 38  1  0  0  0  0
 20 39  1  0  0  0  0
 21 27  1  0  0  0  0
 21 40  1  0  0  0  0
 22 28  2  0  0  0  0
 22 41  1  0  0  0  0
 24 26  2  0  0  0  0
 24 42  1  0  0  0  0
 25 26  1  0  0  0  0
 25 43  1  0  0  0  0
 26 45  1  0  0  0  0
 27 31  2  0  0  0  0
 27 46  1  0  0  0  0
 28 31  1  0  0  0  0
 28 47  1  0  0  0  0
 29 48  1  0  0  0  0
 29 49  1  0  0  0  0
 29 50  1  0  0  0  0
 30 51  1  0  0  0  0
 30 52  1  0  0  0  0
 30 53  1  0  0  0  0
 31 54  1  0  0  0  0
 32 56  1  0  0  0  0
 32 57  1  0  0  0  0
 32 58  1  0  0  0  0
M  END
> <PUBCHEM_COMPOUND_CID>
135742497

> <PUBCHEM_COMPOUND_CANONICALIZED>
1

> <PUBCHEM_CACTVS_COMPLEXITY>
660

> <PUBCHEM_CACTVS_HBOND_ACCEPTOR>
4

> <PUBCHEM_CACTVS_HBOND_DONOR>
3

> <PUBCHEM_CACTVS_ROTATABLE_BOND>
6

> <PUBCHEM_CACTVS_SUBSKEYS>
AAADceB7sAAAAAAAAAAAAAAAAAAAAWAAAAAwYMAAAAAAAFgB9AAAHgAQCAAADAjBngQyxPPJkgCoAyVyVACCgCAlIiAImaE8bN0IJvLClZOEcQhk0hHI2Ye8yOCOwAAAQAACAACAAACAAAQAAAAAAAAAAA==

> <PUBCHEM_IUPAC_OPENEYE_NAME>
3-[N-[3-[(dimethylamino)methyl]phenyl]-C-phenyl-carbonimidoyl]-2-hydroxy-N-methyl-1H-indole-6-carboxamide

> <PUBCHEM_IUPAC_CAS_NAME>
3-[[3-[(dimethylamino)methyl]phenyl]imino-phenylmethyl]-2-hydroxy-N-methyl-1H-indole-6-carboxamide

> <PUBCHEM_IUPAC_NAME_MARKUP>
3-[<I>N</I>-[3-[(dimethylamino)methyl]phenyl]-<I>C</I>-phenylcarbonimidoyl]-2-hydroxy-<I>N</I>-methyl-1<I>H</I>-indole-6-carboxamide

> <PUBCHEM_IUPAC_NAME>
3-[N-[3-[(dimethylamino)methyl]phenyl]-C-phenylcarbonimidoyl]-2-hydroxy-N-methyl-1H-indole-6-carboxamide

> <PUBCHEM_IUPAC_SYSTEMATIC_NAME>
3-[N-[3-[(dimethylamino)methyl]phenyl]-C-phenyl-carbonimidoyl]-N-methyl-2-oxidanyl-1H-indole-6-carboxamide

> <PUBCHEM_IUPAC_TRADITIONAL_NAME>
3-[N-[3-[(dimethylamino)methyl]phenyl]-C-phenyl-carbonimidoyl]-2-hydroxy-N-methyl-1H-indole-6-carboxamide

> <PUBCHEM_IUPAC_INCHI>
InChI=1S/C26H26N4O2/c1-27-25(31)19-12-13-21-22(15-19)29-26(32)23(21)24(18-9-5-4-6-10-18)28-20-11-7-8-17(14-20)16-30(2)3/h4-15,29,32H,16H2,1-3H3,(H,27,31)

> <PUBCHEM_IUPAC_INCHIKEY>
UPICVLXBXZXYIE-UHFFFAOYSA-N

> <PUBCHEM_XLOGP3_AA>
4.3

> <PUBCHEM_EXACT_MASS>
426.20557608

> <PUBCHEM_MOLECULAR_FORMULA>
C26H26N4O2

> <PUBCHEM_MOLECULAR_WEIGHT>
426.5

> <PUBCHEM_OPENEYE_CAN_SMILES>
CNC(=O)C1=CC2=C(C=C1)C(=C(N2)O)C(=NC3=CC=CC(=C3)CN(C)C)C4=CC=CC=C4

> <PUBCHEM_OPENEYE_ISO_SMILES>
CNC(=O)C1=CC2=C(C=C1)C(=C(N2)O)C(=NC3=CC=CC(=C3)CN(C)C)C4=CC=CC=C4

> <PUBCHEM_CACTVS_TPSA>
80.7

> <PUBCHEM_MONOISOTOPIC_WEIGHT>
426.20557608

> <PUBCHEM_TOTAL_CHARGE>
0

> <PUBCHEM_HEAVY_ATOM_COUNT>
32

> <PUBCHEM_ATOM_DEF_STEREO_COUNT>
0

> <PUBCHEM_ATOM_UDEF_STEREO_COUNT>
0

> <PUBCHEM_BOND_DEF_STEREO_COUNT>
0

> <PUBCHEM_BOND_UDEF_STEREO_COUNT>
0

> <PUBCHEM_ISOTOPIC_ATOM_COUNT>
0

> <PUBCHEM_COMPONENT_COUNT>
1

> <PUBCHEM_CACTVS_TAUTO_COUNT>
-1

> <PUBCHEM_COORDINATE_TYPE>
1
5
255

> <PUBCHEM_BONDANNOTATIONS>
12  16  8
13  14  8
14  16  8
15  21  8
15  22  8
17  20  8
17  24  8
18  20  8
18  25  8
21  27  8
22  28  8
24  26  8
25  26  8
27  31  8
28  31  8
3  10  8
3  9  8
7  12  8
7  8  8
7  9  8
8  10  8
9  13  8

$$$$
3006531
  -OEChem-11282409422D

 42 43  0     0  0  0  0  0  0999 V2000
    6.8671    1.7500    0.0000 S   0  0  0  0  0  0  0  0  0  0  0  0
    4.2690   -1.7500    0.0000 S   0  0  0  0  0  0  0  0  0  0  0  0
    8.5991    2.7500    0.0000 N   0  0  0  0  0  0  0  0  0  0  0  0
    2.5369   -2.7500    0.0000 N   0  0  0  0  0  0  0  0  0  0  0  0
    5.1350    1.7500    0.0000 N   0  0  0  0  0  0  0  0  0  0  0  0
    6.0010   -1.7500    0.0000 N   0  0  0  0  0  0  0  0  0  0  0  0
    7.7331   -0.7500    0.0000 N   0  0  0  0  0  0  0  0  0  0  0  0
    3.4030    0.7500    0.0000 N   0  0  0  0  0  0  0  0  0  0  0  0
    6.8671    2.7500    0.0000 C   0  0  0  0  0  0  0  0  0  0  0  0
    4.2690   -2.7500    0.0000 C   0  0  0  0  0  0  0  0  0  0  0  0
    7.7331    3.2500    0.0000 C   0  0  0  0  0  0  0  0  0  0  0  0
    3.4030   -3.2500    0.0000 C   0  0  0  0  0  0  0  0  0  0  0  0
    6.0010    3.2500    0.0000 C   0  0  0  0  0  0  0  0  0  0  0  0
    5.1350   -3.2500    0.0000 C   0  0  0  0  0  0  0  0  0  0  0  0
    7.7331    4.2500    0.0000 C   0  0  0  0  0  0  0  0  0  0  0  0
    3.4030   -4.2500    0.0000 C   0  0  0  0  0  0  0  0  0  0  0  0
    6.0010    1.2500    0.0000 C   0  0  0  0  0  0  0  0  0  0  0  0
    5.1350   -1.2500    0.0000 C   0  0  0  0  0  0  0  0  0  0  0  0
    6.0010    0.2500    0.0000 C   0  0  0  0  0  0  0  0  0  0  0  0
    5.1350   -0.2500    0.0000 C   0  0  0  0  0  0  0  0  0  0  0  0
    6.0010    4.2500    0.0000 C   0  0  0  0  0  0  0  0  0  0  0  0
    5.1350   -4.2500    0.0000 C   0  0  0  0  0  0  0  0  0  0  0  0
    6.8671    4.7500    0.0000 C   0  0  0  0  0  0  0  0  0  0  0  0
    4.2690   -4.7500    0.0000 C   0  0  0  0  0  0  0  0  0  0  0  0
    6.8671   -0.2500    0.0000 C   0  0  0  0  0  0  0  0  0  0  0  0
    4.2690    0.2500    0.0000 C   0  0  0  0  0  0  0  0  0  0  0  0
    5.4641    2.9400    0.0000 H   0  0  0  0  0  0  0  0  0  0  0  0
    5.6720   -2.9400    0.0000 H   0  0  0  0  0  0  0  0  0  0  0  0
    8.2700    4.5600    0.0000 H   0  0  0  0  0  0  0  0  0  0  0  0
    2.8660   -4.5600    0.0000 H   0  0  0  0  0  0  0  0  0  0  0  0
    5.4641    4.5600    0.0000 H   0  0  0  0  0  0  0  0  0  0  0  0
    5.6720   -4.5600    0.0000 H   0  0  0  0  0  0  0  0  0  0  0  0
    6.8671    5.3700    0.0000 H   0  0  0  0  0  0  0  0  0  0  0  0
    4.2690   -5.3700    0.0000 H   0  0  0  0  0  0  0  0  0  0  0  0
    9.1360    3.0600    0.0000 H   0  0  0  0  0  0  0  0  0  0  0  0
    8.5991    2.1300    0.0000 H   0  0  0  0  0  0  0  0  0  0  0  0
    2.0000   -3.0600    0.0000 H   0  0  0  0  0  0  0  0  0  0  0  0
    2.5369   -2.1300    0.0000 H   0  0  0  0  0  0  0  0  0  0  0  0
    5.1350    2.3700    0.0000 H   0  0  0  0  0  0  0  0  0  0  0  0
    4.5981    1.4400    0.0000 H   0  0  0  0  0  0  0  0  0  0  0  0
    6.5380   -1.4400    0.0000 H   0  0  0  0  0  0  0  0  0  0  0  0
    6.0010   -2.3700    0.0000 H   0  0  0  0  0  0  0  0  0  0  0  0
  1  9  1  0  0  0  0
  1 17  1  0  0  0  0
  2 10  1  0  0  0  0
  2 18  1  0  0  0  0
  3 11  1  0  0  0  0
  3 35  1  0  0  0  0
  3 36  1  0  0  0  0
  4 12  1  0  0  0  0
  4 37  1  0  0  0  0
  4 38  1  0  0  0  0
  5 17  1  0  0  0  0
  5 39  1  0  0  0  0
  5 40  1  0  0  0  0
  6 18  1  0  0  0  0
  6 41  1  0  0  0  0
  6 42  1  0  0  0  0
  7 25  3  0  0  0  0
  8 26  3  0  0  0  0
  9 11  1  0  0  0  0
  9 13  2  0  0  0  0
 10 12  1  0  0  0  0
 10 14  2  0  0  0  0
 11 15  2  0  0  0  0
 12 16  2  0  0  0  0
 13 21  1  0  0  0  0
 13 27  1  0  0  0  0
 14 22  1  0  0  0  0
 14 28  1  0  0  0  0
 15 23  1  0  0  0  0
 15 29  1  0  0  0  0
 16 24  1  0  0  0  0
 16 30  1  0  0  0  0
 17 19  2  0  0  0  0
 18 20  2  0  0  0  0
 19 20  1  0  0  0  0
 19 25  1  0  0  0  0
 20 26  1  0  0  0  0
 21 23  2  0  0  0  0
 21 31  1  0  0  0  0
 22 24  2  0  0  0  0
 22 32  1  0  0  0  0
 23 33  1  0  0  0  0
 24 34  1  0  0  0  0
M  END
> <PUBCHEM_COMPOUND_CID>
3006531

> <PUBCHEM_COMPOUND_CANONICALIZED>
1

> <PUBCHEM_CACTVS_COMPLEXITY>
610

> <PUBCHEM_CACTVS_HBOND_ACCEPTOR>
8

> <PUBCHEM_CACTVS_HBOND_DONOR>
4

> <PUBCHEM_CACTVS_ROTATABLE_BOND>
5

> <PUBCHEM_CACTVS_SUBSKEYS>
AAADceB7gABgAAAAAAAAAAAAAAAAAAAAAAAwYAAAAAAAAAABQAAAHAQQAAAADAiBUAAwwYBAAAiQBiRCQACiAABgChAIiBwAZIgIoCKgkZGAIABgkAAIyA8QAAAAAAAAAAAAAQAAAAAAAAACAAAAAAAAAA==

> <PUBCHEM_IUPAC_OPENEYE_NAME>
(2Z,3Z)-2,3-bis[amino-(2-aminophenyl)sulfanyl-methylene]butanedinitrile

> <PUBCHEM_IUPAC_CAS_NAME>
(2Z,3Z)-2,3-bis[amino-[(2-aminophenyl)thio]methylidene]butanedinitrile

> <PUBCHEM_IUPAC_NAME_MARKUP>
(2<I>Z</I>,3<I>Z</I>)-2,3-bis[amino-(2-aminophenyl)sulfanylmethylidene]butanedinitrile

> <PUBCHEM_IUPAC_NAME>
(2Z,3Z)-2,3-bis[amino-(2-aminophenyl)sulfanylmethylidene]butanedinitrile

> <PUBCHEM_IUPAC_SYSTEMATIC_NAME>
(2Z,3Z)-2,3-bis[(2-aminophenyl)sulfanyl-azanyl-methylidene]butanedinitrile

> <PUBCHEM_IUPAC_TRADITIONAL_NAME>
(2Z,3Z)-2,3-bis[amino-[(2-aminophenyl)thio]methylene]succinonitrile

> <PUBCHEM_IUPAC_INCHI>
InChI=1S/C18H16N6S2/c19-9-11(17(23)25-15-7-3-1-5-13(15)21)12(10-20)18(24)26-16-8-4-2-6-14(16)22/h1-8H,21-24H2/b17-11+,18-12+

> <PUBCHEM_IUPAC_INCHIKEY>
DVEXZJFMOKTQEZ-JYFOCSDGSA-N

> <PUBCHEM_XLOGP3_AA>
2

> <PUBCHEM_EXACT_MASS>
380.08778688

> <PUBCHEM_MOLECULAR_FORMULA>
C18H16N6S2

> <PUBCHEM_MOLECULAR_WEIGHT>
380.5

> <PUBCHEM_OPENEYE_CAN_SMILES>
C1=CC=C(C(=C1)N)SC(=C(C#N)C(=C(N)SC2=CC=CC=C2N)C#N)N

> <PUBCHEM_OPENEYE_ISO_SMILES>
C1=CC=C(C(=C1)N)S/C(=C(/C(=C(/SC2=CC=CC=C2N)\N)/C#N)\C#N)/N

> <PUBCHEM_CACTVS_TPSA>
202

> <PUBCHEM_MONOISOTOPIC_WEIGHT>
380.08778688

> <PUBCHEM_TOTAL_CHARGE>
0

> <PUBCHEM_HEAVY_ATOM_COUNT>
26

> <PUBCHEM_ATOM_DEF_STEREO_COUNT>
0

> <PUBCHEM_ATOM_UDEF_STEREO_COUNT>
0

> <PUBCHEM_BOND_DEF_STEREO_COUNT>
2

> <PUBCHEM_BOND_UDEF_STEREO_COUNT>
0

> <PUBCHEM_ISOTOPIC_ATOM_COUNT>
0

> <PUBCHEM_COMPONENT_COUNT>
1

> <PUBCHEM_CACTVS_TAUTO_COUNT>
3

> <PUBCHEM_COORDINATE_TYPE>
1
5
255

> <PUBCHEM_BONDANNOTATIONS>
10  12  8
10  14  8
11  15  8
12  16  8
13  21  8
14  22  8
15  23  8
16  24  8
21  23  8
22  24  8
9  11  8
9  13  8

$$$$
4713
  -OEChem-11282409422D

 33 35  0     0  0  0  0  0  0999 V2000
    4.6660    0.0000    0.0000 O   0  0  0  0  0  0  0  0  0  0  0  0
    7.2641   -2.5000    0.0000 O   0  0  0  0  0  0  0  0  0  0  0  0
    4.6660    3.0000    0.0000 O   0  0  0  0  0  0  0  0  0  0  0  0
    5.5321   -1.5000    0.0000 N   0  0  0  0  0  0  0  0  0  0  0  0
    6.3981    0.0000    0.0000 C   0  0  0  0  0  0  0  0  0  0  0  0
    5.5321    0.5000    0.0000 C   0  0  0  0  0  0  0  0  0  0  0  0
    3.8000    1.5000    0.0000 C   0  0  0  0  0  0  0  0  0  0  0  0
    3.8000    0.5000    0.0000 C   0  0  0  0  0  0  0  0  0  0  0  0
    6.3981   -1.0000    0.0000 C   0  0  0  0  0  0  0  0  0  0  0  0
    5.5321    1.5000    0.0000 C   0  0  0  0  0  0  0  0  0  0  0  0
    4.6660    2.0000    0.0000 C   0  0  0  0  0  0  0  0  0  0  0  0
    7.2641    0.5000    0.0000 C   0  0  0  0  0  0  0  0  0  0  0  0
    7.2641   -1.5000    0.0000 C   0  0  0  0  0  0  0  0  0  0  0  0
    2.9061    2.0347    0.0000 C   0  0  0  0  0  0  0  0  0  0  0  0
    2.9061   -0.0347    0.0000 C   0  0  0  0  0  0  0  0  0  0  0  0
    8.1301   -0.0000    0.0000 C   0  0  0  0  0  0  0  0  0  0  0  0
    8.1301   -1.0000    0.0000 C   0  0  0  0  0  0  0  0  0  0  0  0
    2.0000    1.5208    0.0000 C   0  0  0  0  0  0  0  0  0  0  0  0
    2.0000    0.4792    0.0000 C   0  0  0  0  0  0  0  0  0  0  0  0
    8.1301   -3.0000    0.0000 C   0  0  0  0  0  0  0  0  0  0  0  0
    6.0690    1.8100    0.0000 H   0  0  0  0  0  0  0  0  0  0  0  0
    7.2641    1.1200    0.0000 H   0  0  0  0  0  0  0  0  0  0  0  0
    2.9132    2.6546    0.0000 H   0  0  0  0  0  0  0  0  0  0  0  0
    2.9132   -0.6546    0.0000 H   0  0  0  0  0  0  0  0  0  0  0  0
    8.6671    0.3100    0.0000 H   0  0  0  0  0  0  0  0  0  0  0  0
    8.6671   -1.3100    0.0000 H   0  0  0  0  0  0  0  0  0  0  0  0
    1.4643    1.8329    0.0000 H   0  0  0  0  0  0  0  0  0  0  0  0
    1.4643    0.1671    0.0000 H   0  0  0  0  0  0  0  0  0  0  0  0
    5.5321   -2.1200    0.0000 H   0  0  0  0  0  0  0  0  0  0  0  0
    4.9951   -1.1900    0.0000 H   0  0  0  0  0  0  0  0  0  0  0  0
    7.8201   -3.5369    0.0000 H   0  0  0  0  0  0  0  0  0  0  0  0
    8.6671   -3.3100    0.0000 H   0  0  0  0  0  0  0  0  0  0  0  0
    8.4401   -2.4631    0.0000 H   0  0  0  0  0  0  0  0  0  0  0  0
  1  6  1  0  0  0  0
  1  8  1  0  0  0  0
  2 13  1  0  0  0  0
  2 20  1  0  0  0  0
  3 11  2  0  0  0  0
  4  9  1  0  0  0  0
  4 29  1  0  0  0  0
  4 30  1  0  0  0  0
  5  6  1  0  0  0  0
  5  9  2  0  0  0  0
  5 12  1  0  0  0  0
  6 10  2  0  0  0  0
  7  8  1  0  0  0  0
  7 11  1  0  0  0  0
  7 14  2  0  0  0  0
  8 15  2  0  0  0  0
  9 13  1  0  0  0  0
 10 11  1  0  0  0  0
 10 21  1  0  0  0  0
 12 16  2  0  0  0  0
 12 22  1  0  0  0  0
 13 17  2  0  0  0  0
 14 18  1  0  0  0  0
 14 23  1  0  0  0  0
 15 19  1  0  0  0  0
 15 24  1  0  0  0  0
 16 17  1  0  0  0  0
 16 25  1  0  0  0  0
 17 26  1  0  0  0  0
 18 19  2  0  0  0  0
 18 27  1  0  0  0  0
 19 28  1  0  0  0  0
 20 31  1  0  0  0  0
 20 32  1  0  0  0  0
 20 33  1  0  0  0  0
M  END
> <PUBCHEM_COMPOUND_CID>
4713

> <PUBCHEM_COMPOUND_CANONICALIZED>
1

> <PUBCHEM_CACTVS_COMPLEXITY>
407

> <PUBCHEM_CACTVS_HBOND_ACCEPTOR>
4

> <PUBCHEM_CACTVS_HBOND_DONOR>
1

> <PUBCHEM_CACTVS_ROTATABLE_BOND>
2

> <PUBCHEM_CACTVS_SUBSKEYS>
AAADccB6MAAAAAAAAAAAAAAAAAAAAAAAAAAwYIAAAAAAAACBQAAAHgAQAAAADAyBmAIyxoBABACIAqRSQACCCAAkIAAIiAEHTMgOJjaEtZuDOWDm4BEI6YfYyLCOAAABAAAKEAAAAAIAABQgAAAAAAAAAA==

> <PUBCHEM_IUPAC_OPENEYE_NAME>
2-(2-amino-3-methoxy-phenyl)chromen-4-one

> <PUBCHEM_IUPAC_CAS_NAME>
2-(2-amino-3-methoxyphenyl)-1-benzopyran-4-one

> <PUBCHEM_IUPAC_NAME_MARKUP>
2-(2-amino-3-methoxyphenyl)chromen-4-one

> <PUBCHEM_IUPAC_NAME>
2-(2-amino-3-methoxyphenyl)chromen-4-one

> <PUBCHEM_IUPAC_SYSTEMATIC_NAME>
2-(2-azanyl-3-methoxy-phenyl)chromen-4-one

> <PUBCHEM_IUPAC_TRADITIONAL_NAME>
2-(2-amino-3-methoxy-phenyl)chromone

> <PUBCHEM_IUPAC_INCHI>
InChI=1S/C16H13NO3/c1-19-14-8-4-6-11(16(14)17)15-9-12(18)10-5-2-3-7-13(10)20-15/h2-9H,17H2,1H3

> <PUBCHEM_IUPAC_INCHIKEY>
QFWCYNPOPKQOKV-UHFFFAOYSA-N

> <PUBCHEM_XLOGP3>
2.9

> <PUBCHEM_EXACT_MASS>
267.08954328

> <PUBCHEM_MOLECULAR_FORMULA>
C16H13NO3

> <PUBCHEM_MOLECULAR_WEIGHT>
267.28

> <PUBCHEM_OPENEYE_CAN_SMILES>
COC1=CC=CC(=C1N)C2=CC(=O)C3=CC=CC=C3O2

> <PUBCHEM_OPENEYE_ISO_SMILES>
COC1=CC=CC(=C1N)C2=CC(=O)C3=CC=CC=C3O2

> <PUBCHEM_CACTVS_TPSA>
61.6

> <PUBCHEM_MONOISOTOPIC_WEIGHT>
267.08954328

> <PUBCHEM_TOTAL_CHARGE>
0

> <PUBCHEM_HEAVY_ATOM_COUNT>
20

> <PUBCHEM_ATOM_DEF_STEREO_COUNT>
0

> <PUBCHEM_ATOM_UDEF_STEREO_COUNT>
0

> <PUBCHEM_BOND_DEF_STEREO_COUNT>
0

> <PUBCHEM_BOND_UDEF_STEREO_COUNT>
0

> <PUBCHEM_ISOTOPIC_ATOM_COUNT>
0

> <PUBCHEM_COMPONENT_COUNT>
1

> <PUBCHEM_CACTVS_TAUTO_COUNT>
-1

> <PUBCHEM_COORDINATE_TYPE>
1
5
255

> <PUBCHEM_BONDANNOTATIONS>
1  6  8
1  8  8
10  11  8
12  16  8
13  17  8
14  18  8
15  19  8
16  17  8
18  19  8
5  12  8
5  9  8
6  10  8
7  11  8
7  14  8
7  8  8
8  15  8
9  13  8

$$$$
16666708
  -OEChem-11282409422D

 42 43  0     0  0  0  0  0  0999 V2000
    4.2690   -5.1550    0.0000 I   0  0  0  0  0  0  0  0  0  0  0  0
    2.5369   -2.1550    0.0000 F   0  0  0  0  0  0  0  0  0  0  0  0
    7.7331   -1.1550    0.0000 O   0  0  0  0  0  0  0  0  0  0  0  0
    3.4030    2.3450    0.0000 O   0  0  0  0  0  0  0  0  0  0  0  0
    3.4030    0.3450    0.0000 O   0  0  0  0  0  0  0  0  0  0  0  0
    2.5369    4.8450    0.0000 O   0  0  0  0  0  0  0  0  0  0  0  0
    6.0010   -1.1550    0.0000 N   0  0  0  0  0  0  0  0  0  0  0  0
    4.2690   -1.1550    0.0000 N   0  0  0  0  0  0  0  0  0  0  0  0
    4.2690    1.8450    0.0000 N   0  0  0  0  0  0  0  0  0  0  0  0
    5.1350   -0.6550    0.0000 C   0  0  0  0  0  0  0  0  0  0  0  0
    5.1350    0.3450    0.0000 C   0  0  0  0  0  0  0  0  0  0  0  0
    6.8671    0.3450    0.0000 C   0  0  0  0  0  0  0  0  0  0  0  0
    6.8671   -0.6550    0.0000 C   0  0  0  0  0  0  0  0  0  0  0  0
    6.0010    0.8450    0.0000 C   0  0  0  0  0  0  0  0  0  0  0  0
    6.0010   -2.1550    0.0000 C   0  0  0  0  0  0  0  0  0  0  0  0
    4.2690   -2.1550    0.0000 C   0  0  0  0  0  0  0  0  0  0  0  0
    4.2690    0.8450    0.0000 C   0  0  0  0  0  0  0  0  0  0  0  0
    7.7331    0.8450    0.0000 C   0  0  0  0  0  0  0  0  0  0  0  0
    3.4030   -2.6550    0.0000 C   0  0  0  0  0  0  0  0  0  0  0  0
    5.1350   -2.6550    0.0000 C   0  0  0  0  0  0  0  0  0  0  0  0
    3.4030   -3.6550    0.0000 C   0  0  0  0  0  0  0  0  0  0  0  0
    5.1350   -3.6550    0.0000 C   0  0  0  0  0  0  0  0  0  0  0  0
    4.2690   -4.1550    0.0000 C   0  0  0  0  0  0  0  0  0  0  0  0
    3.4030    3.3450    0.0000 C   0  0  0  0  0  0  0  0  0  0  0  0
    2.5369    3.8450    0.0000 C   0  0  0  0  0  0  0  0  0  0  0  0
    6.0010    1.4650    0.0000 H   0  0  0  0  0  0  0  0  0  0  0  0
    3.7320   -0.8450    0.0000 H   0  0  0  0  0  0  0  0  0  0  0  0
    5.3810   -2.1550    0.0000 H   0  0  0  0  0  0  0  0  0  0  0  0
    6.0010   -2.7750    0.0000 H   0  0  0  0  0  0  0  0  0  0  0  0
    6.6210   -2.1550    0.0000 H   0  0  0  0  0  0  0  0  0  0  0  0
    8.0431    0.3081    0.0000 H   0  0  0  0  0  0  0  0  0  0  0  0
    8.2700    1.1550    0.0000 H   0  0  0  0  0  0  0  0  0  0  0  0
    7.4231    1.3819    0.0000 H   0  0  0  0  0  0  0  0  0  0  0  0
    5.6720   -2.3450    0.0000 H   0  0  0  0  0  0  0  0  0  0  0  0
    4.8059    2.1550    0.0000 H   0  0  0  0  0  0  0  0  0  0  0  0
    2.8660   -3.9650    0.0000 H   0  0  0  0  0  0  0  0  0  0  0  0
    5.6720   -3.9650    0.0000 H   0  0  0  0  0  0  0  0  0  0  0  0
    4.0135    3.2373    0.0000 H   0  0  0  0  0  0  0  0  0  0  0  0
    3.6150    3.9276    0.0000 H   0  0  0  0  0  0  0  0  0  0  0  0
    1.9264    3.9527    0.0000 H   0  0  0  0  0  0  0  0  0  0  0  0
    2.3249    3.2624    0.0000 H   0  0  0  0  0  0  0  0  0  0  0  0
    2.0000    5.1550    0.0000 H   0  0  0  0  0  0  0  0  0  0  0  0
  1 23  1  0  0  0  0
  2 19  1  0  0  0  0
  3 13  2  0  0  0  0
  4  9  1  0  0  0  0
  4 24  1  0  0  0  0
  5 17  2  0  0  0  0
  6 25  1  0  0  0  0
  6 42  1  0  0  0  0
  7 10  1  0  0  0  0
  7 13  1  0  0  0  0
  7 15  1  0  0  0  0
  8 10  1  0  0  0  0
  8 16  1  0  0  0  0
  8 27  1  0  0  0  0
  9 17  1  0  0  0  0
  9 35  1  0  0  0  0
 10 11  2  0  0  0  0
 11 14  1  0  0  0  0
 11 17  1  0  0  0  0
 12 13  1  0  0  0  0
 12 14  2  0  0  0  0
 12 18  1  0  0  0  0
 14 26  1  0  0  0  0
 15 28  1  0  0  0  0
 15 29  1  0  0  0  0
 15 30  1  0  0  0  0
 16 19  2  0  0  0  0
 16 20  1  0  0  0  0
 18 31  1  0  0  0  0
 18 32  1  0  0  0  0
 18 33  1  0  0  0  0
 19 21  1  0  0  0  0
 20 22  2  0  0  0  0
 20 34  1  0  0  0  0
 21 23  2  0  0  0  0
 21 36  1  0  0  0  0
 22 23  1  0  0  0  0
 22 37  1  0  0  0  0
 24 25  1  0  0  0  0
 24 38  1  0  0  0  0
 24 39  1  0  0  0  0
 25 40  1  0  0  0  0
 25 41  1  0  0  0  0
M  END
> <PUBCHEM_COMPOUND_CID>
16666708

> <PUBCHEM_COMPOUND_CANONICALIZED>
1

> <PUBCHEM_CACTVS_COMPLEXITY>
596

> <PUBCHEM_CACTVS_HBOND_ACCEPTOR>
6

> <PUBCHEM_CACTVS_HBOND_DONOR>
3

> <PUBCHEM_CACTVS_ROTATABLE_BOND>
6

> <PUBCHEM_CACTVS_SUBSKEYS>
AAADceB7OQAAAgAAAAAAAAAAAAAAAAAAAAAwQAAAAAAAAAABAAAAHwA0CAAADAijkA4zwIPQAgCIAiVSUACCAAAhAgAoiAEIZMiJMCLAkZGEIAhokwJJyecQAAAAAAAAAAAAAAAAAAAAAAAAAAAAAAAAAA==

> <PUBCHEM_IUPAC_OPENEYE_NAME>
2-(2-fluoro-4-iodo-anilino)-N-(2-hydroxyethoxy)-1,5-dimethyl-6-oxo-pyridine-3-carboxamide

> <PUBCHEM_IUPAC_CAS_NAME>
2-(2-fluoro-4-iodoanilino)-N-(2-hydroxyethoxy)-1,5-dimethyl-6-oxo-3-pyridinecarboxamide

> <PUBCHEM_IUPAC_NAME_MARKUP>
2-(2-fluoro-4-iodoanilino)-<I>N</I>-(2-hydroxyethoxy)-1,5-dimethyl-6-oxopyridine-3-carboxamide

> <PUBCHEM_IUPAC_NAME>
2-(2-fluoro-4-iodoanilino)-N-(2-hydroxyethoxy)-1,5-dimethyl-6-oxopyridine-3-carboxamide

> <PUBCHEM_IUPAC_SYSTEMATIC_NAME>
2-[(2-fluoranyl-4-iodanyl-phenyl)amino]-N-(2-hydroxyethyloxy)-1,5-dimethyl-6-oxidanylidene-pyridine-3-carboxamide

> <PUBCHEM_IUPAC_TRADITIONAL_NAME>
2-(2-fluoro-4-iodo-anilino)-N-(2-hydroxyethoxy)-6-keto-1,5-dimethyl-nicotinamide

> <PUBCHEM_IUPAC_INCHI>
InChI=1S/C16H17FIN3O4/c1-9-7-11(15(23)20-25-6-5-22)14(21(2)16(9)24)19-13-4-3-10(18)8-12(13)17/h3-4,7-8,19,22H,5-6H2,1-2H3,(H,20,23)

> <PUBCHEM_IUPAC_INCHIKEY>
RWEVIPRMPFNTLO-UHFFFAOYSA-N

> <PUBCHEM_XLOGP3_AA>
2.2

> <PUBCHEM_EXACT_MASS>
461.02478

> <PUBCHEM_MOLECULAR_FORMULA>
C16H17FIN3O4

> <PUBCHEM_MOLECULAR_WEIGHT>
461.23

> <PUBCHEM_OPENEYE_CAN_SMILES>
CC1=CC(=C(N(C1=O)C)NC2=C(C=C(C=C2)I)F)C(=O)NOCCO

> <PUBCHEM_OPENEYE_ISO_SMILES>
CC1=CC(=C(N(C1=O)C)NC2=C(C=C(C=C2)I)F)C(=O)NOCCO

> <PUBCHEM_CACTVS_TPSA>
90.9

> <PUBCHEM_MONOISOTOPIC_WEIGHT>
461.02478

> <PUBCHEM_TOTAL_CHARGE>
0

> <PUBCHEM_HEAVY_ATOM_COUNT>
25

> <PUBCHEM_ATOM_DEF_STEREO_COUNT>
0

> <PUBCHEM_ATOM_UDEF_STEREO_COUNT>
0

> <PUBCHEM_BOND_DEF_STEREO_COUNT>
0

> <PUBCHEM_BOND_UDEF_STEREO_COUNT>
0

> <PUBCHEM_ISOTOPIC_ATOM_COUNT>
0

> <PUBCHEM_COMPONENT_COUNT>
1

> <PUBCHEM_CACTVS_TAUTO_COUNT>
-1

> <PUBCHEM_COORDINATE_TYPE>
1
5
255

> <PUBCHEM_BONDANNOTATIONS>
10  11  8
11  14  8
12  13  8
12  14  8
16  19  8
16  20  8
19  21  8
20  22  8
21  23  8
22  23  8
7  10  8
7  13  8

$$$$
10288191
  -OEChem-11282409422D

 42 44  0     0  0  0  0  0  0999 V2000
    4.2690    5.1550    0.0000 Br  0  0  0  0  0  0  0  0  0  0  0  0
    6.0010    2.1550    0.0000 F   0  0  0  0  0  0  0  0  0  0  0  0
    2.5369    2.1550    0.0000 F   0  0  0  0  0  0  0  0  0  0  0  0
    3.4030   -2.3450    0.0000 O   0  0  0  0  0  0  0  0  0  0  0  0
    3.4030   -0.3450    0.0000 O   0  0  0  0  0  0  0  0  0  0  0  0
    2.5369   -4.8450    0.0000 O   0  0  0  0  0  0  0  0  0  0  0  0
    7.8133   -0.6497    0.0000 N   0  0  0  0  0  0  0  0  0  0  0  0
    4.2690    1.1550    0.0000 N   0  0  0  0  0  0  0  0  0  0  0  0
    7.8133    0.9597    0.0000 N   0  0  0  0  0  0  0  0  0  0  0  0
    4.2690   -1.8450    0.0000 N   0  0  0  0  0  0  0  0  0  0  0  0
    6.8671   -0.3450    0.0000 C   0  0  0  0  0  0  0  0  0  0  0  0
    6.8671    0.6550    0.0000 C   0  0  0  0  0  0  0  0  0  0  0  0
    5.1350    0.6550    0.0000 C   0  0  0  0  0  0  0  0  0  0  0  0
    5.1350   -0.3450    0.0000 C   0  0  0  0  0  0  0  0  0  0  0  0
    6.0010   -0.8450    0.0000 C   0  0  0  0  0  0  0  0  0  0  0  0
    6.0010    1.1550    0.0000 C   0  0  0  0  0  0  0  0  0  0  0  0
    8.3969    0.1550    0.0000 C   0  0  0  0  0  0  0  0  0  0  0  0
    8.1240   -1.6002    0.0000 C   0  0  0  0  0  0  0  0  0  0  0  0
    4.2690   -0.8450    0.0000 C   0  0  0  0  0  0  0  0  0  0  0  0
    4.2690    2.1550    0.0000 C   0  0  0  0  0  0  0  0  0  0  0  0
    3.4030    2.6550    0.0000 C   0  0  0  0  0  0  0  0  0  0  0  0
    5.1350    2.6550    0.0000 C   0  0  0  0  0  0  0  0  0  0  0  0
    3.4030    3.6550    0.0000 C   0  0  0  0  0  0  0  0  0  0  0  0
    5.1350    3.6550    0.0000 C   0  0  0  0  0  0  0  0  0  0  0  0
    4.2690    4.1550    0.0000 C   0  0  0  0  0  0  0  0  0  0  0  0
    3.4030   -3.3450    0.0000 C   0  0  0  0  0  0  0  0  0  0  0  0
    2.5369   -3.8450    0.0000 C   0  0  0  0  0  0  0  0  0  0  0  0
    6.0010   -1.4650    0.0000 H   0  0  0  0  0  0  0  0  0  0  0  0
    3.7320    0.8450    0.0000 H   0  0  0  0  0  0  0  0  0  0  0  0
    9.0169    0.1550    0.0000 H   0  0  0  0  0  0  0  0  0  0  0  0
    7.5346   -1.7929    0.0000 H   0  0  0  0  0  0  0  0  0  0  0  0
    8.3166   -2.1896    0.0000 H   0  0  0  0  0  0  0  0  0  0  0  0
    8.7133   -1.4076    0.0000 H   0  0  0  0  0  0  0  0  0  0  0  0
    5.6720    2.3450    0.0000 H   0  0  0  0  0  0  0  0  0  0  0  0
    4.8059   -2.1550    0.0000 H   0  0  0  0  0  0  0  0  0  0  0  0
    2.8660    3.9650    0.0000 H   0  0  0  0  0  0  0  0  0  0  0  0
    5.6720    3.9650    0.0000 H   0  0  0  0  0  0  0  0  0  0  0  0
    3.6150   -3.9276    0.0000 H   0  0  0  0  0  0  0  0  0  0  0  0
    4.0135   -3.2373    0.0000 H   0  0  0  0  0  0  0  0  0  0  0  0
    2.3249   -3.2624    0.0000 H   0  0  0  0  0  0  0  0  0  0  0  0
    1.9264   -3.9527    0.0000 H   0  0  0  0  0  0  0  0  0  0  0  0
    2.0000   -5.1550    0.0000 H   0  0  0  0  0  0  0  0  0  0  0  0
  1 25  1  0  0  0  0
  2 16  1  0  0  0  0
  3 21  1  0  0  0  0
  4 10  1  0  0  0  0
  4 26  1  0  0  0  0
  5 19  2  0  0  0  0
  6 27  1  0  0  0  0
  6 42  1  0  0  0  0
  7 11  1  0  0  0  0
  7 17  1  0  0  0  0
  7 18  1  0  0  0  0
  8 13  1  0  0  0  0
  8 20  1  0  0  0  0
  8 29  1  0  0  0  0
  9 12  1  0  0  0  0
  9 17  2  0  0  0  0
 10 19  1  0  0  0  0
 10 35  1  0  0  0  0
 11 12  2  0  0  0  0
 11 15  1  0  0  0  0
 12 16  1  0  0  0  0
 13 14  1  0  0  0  0
 13 16  2  0  0  0  0
 14 15  2  0  0  0  0
 14 19  1  0  0  0  0
 15 28  1  0  0  0  0
 17 30  1  0  0  0  0
 18 31  1  0  0  0  0
 18 32  1  0  0  0  0
 18 33  1  0  0  0  0
 20 21  2  0  0  0  0
 20 22  1  0  0  0  0
 21 23  1  0  0  0  0
 22 24  2  0  0  0  0
 22 34  1  0  0  0  0
 23 25  2  0  0  0  0
 23 36  1  0  0  0  0
 24 25  1  0  0  0  0
 24 37  1  0  0  0  0
 26 27  1  0  0  0  0
 26 38  1  0  0  0  0
 26 39  1  0  0  0  0
 27 40  1  0  0  0  0
 27 41  1  0  0  0  0
M  END
> <PUBCHEM_COMPOUND_CID>
10288191

> <PUBCHEM_COMPOUND_CANONICALIZED>
1

> <PUBCHEM_CACTVS_COMPLEXITY>
521

> <PUBCHEM_CACTVS_HBOND_ACCEPTOR>
7

> <PUBCHEM_CACTVS_HBOND_DONOR>
3

> <PUBCHEM_CACTVS_ROTATABLE_BOND>
6

> <PUBCHEM_CACTVS_SUBSKEYS>
AAADccB7sYAAEAAAAAAAAAAAAAAAAWAAAAAwYAAAAAAAAFgB9AAAHwBUCAABrAihng430LfcEgCoAyVzdACCgC01EqQp2CE4dPiJePrA3dGUJYhokALJy/cciQCeCACgQAQCACAQAUCACAQAQAAAAAAAAA==

> <PUBCHEM_IUPAC_OPENEYE_NAME>
6-(4-bromo-2-fluoro-anilino)-7-fluoro-N-(2-hydroxyethoxy)-3-methyl-benzimidazole-5-carboxamide

> <PUBCHEM_IUPAC_CAS_NAME>
6-(4-bromo-2-fluoroanilino)-7-fluoro-N-(2-hydroxyethoxy)-3-methyl-5-benzimidazolecarboxamide

> <PUBCHEM_IUPAC_NAME_MARKUP>
6-(4-bromo-2-fluoroanilino)-7-fluoro-<I>N</I>-(2-hydroxyethoxy)-3-methylbenzimidazole-5-carboxamide

> <PUBCHEM_IUPAC_NAME>
6-(4-bromo-2-fluoroanilino)-7-fluoro-N-(2-hydroxyethoxy)-3-methylbenzimidazole-5-carboxamide

> <PUBCHEM_IUPAC_SYSTEMATIC_NAME>
6-[(4-bromanyl-2-fluoranyl-phenyl)amino]-7-fluoranyl-N-(2-hydroxyethyloxy)-3-methyl-benzimidazole-5-carboxamide

> <PUBCHEM_IUPAC_TRADITIONAL_NAME>
6-(4-bromo-2-fluoro-anilino)-7-fluoro-N-(2-hydroxyethoxy)-3-methyl-benzimidazole-5-carboxamide

> <PUBCHEM_IUPAC_INCHI>
InChI=1S/C17H15BrF2N4O3/c1-24-8-21-16-13(24)7-10(17(26)23-27-5-4-25)15(14(16)20)22-12-3-2-9(18)6-11(12)19/h2-3,6-8,22,25H,4-5H2,1H3,(H,23,26)

> <PUBCHEM_IUPAC_INCHIKEY>
ACWZRVQXLIRSDF-UHFFFAOYSA-N

> <PUBCHEM_XLOGP3_AA>
3.1

> <PUBCHEM_EXACT_MASS>
440.02956

> <PUBCHEM_MOLECULAR_FORMULA>
C17H15BrF2N4O3

> <PUBCHEM_MOLECULAR_WEIGHT>
441.2

> <PUBCHEM_OPENEYE_CAN_SMILES>
CN1C=NC2=C1C=C(C(=C2F)NC3=C(C=C(C=C3)Br)F)C(=O)NOCCO

> <PUBCHEM_OPENEYE_ISO_SMILES>
CN1C=NC2=C1C=C(C(=C2F)NC3=C(C=C(C=C3)Br)F)C(=O)NOCCO

> <PUBCHEM_CACTVS_TPSA>
88.4

> <PUBCHEM_MONOISOTOPIC_WEIGHT>
440.02956

> <PUBCHEM_TOTAL_CHARGE>
0

> <PUBCHEM_HEAVY_ATOM_COUNT>
27

> <PUBCHEM_ATOM_DEF_STEREO_COUNT>
0

> <PUBCHEM_ATOM_UDEF_STEREO_COUNT>
0

> <PUBCHEM_BOND_DEF_STEREO_COUNT>
0

> <PUBCHEM_BOND_UDEF_STEREO_COUNT>
0

> <PUBCHEM_ISOTOPIC_ATOM_COUNT>
0

> <PUBCHEM_COMPONENT_COUNT>
1

> <PUBCHEM_CACTVS_TAUTO_COUNT>
-1

> <PUBCHEM_COORDINATE_TYPE>
1
5
255

> <PUBCHEM_BONDANNOTATIONS>
11  12  8
11  15  8
12  16  8
13  14  8
13  16  8
14  15  8
20  21  8
20  22  8
21  23  8
22  24  8
23  25  8
24  25  8
7  11  8
7  17  8
9  12  8
9  17  8

$$$$
42642654
  -OEChem-11282409422D

 39 41  0     0  0  0  0  0  0999 V2000
    9.7942   -3.5600    0.0000 I   0  0  0  0  0  0  0  0  0  0  0  0
    6.3301   -3.5600    0.0000 F   0  0  0  0  0  0  0  0  0  0  0  0
    3.7320    0.9400    0.0000 O   0  0  0  0  0  0  0  0  0  0  0  0
    4.5981   -1.5600    0.0000 O   0  0  0  0  0  0  0  0  0  0  0  0
    2.0000    2.9400    0.0000 O   0  0  0  0  0  0  0  0  0  0  0  0
    7.1962   -0.0600    0.0000 N   0  0  0  0  0  0  0  0  0  0  0  0
    6.3301   -1.5600    0.0000 N   0  0  0  0  0  0  0  0  0  0  0  0
    8.7260    0.4400    0.0000 N   0  0  0  0  0  0  0  0  0  0  0  0
    3.7320   -0.0600    0.0000 N   0  0  0  0  0  0  0  0  0  0  0  0
    6.3301   -0.5600    0.0000 C   0  0  0  0  0  0  0  0  0  0  0  0
    7.1962    0.9400    0.0000 C   0  0  0  0  0  0  0  0  0  0  0  0
    5.4641   -0.0600    0.0000 C   0  0  0  0  0  0  0  0  0  0  0  0
    6.3301    1.4400    0.0000 C   0  0  0  0  0  0  0  0  0  0  0  0
    5.4641    0.9400    0.0000 C   0  0  0  0  0  0  0  0  0  0  0  0
    8.1424   -0.3647    0.0000 C   0  0  0  0  0  0  0  0  0  0  0  0
    8.1424    1.2447    0.0000 C   0  0  0  0  0  0  0  0  0  0  0  0
    7.1962   -2.0600    0.0000 C   0  0  0  0  0  0  0  0  0  0  0  0
    4.5981   -0.5600    0.0000 C   0  0  0  0  0  0  0  0  0  0  0  0
    7.1962   -3.0600    0.0000 C   0  0  0  0  0  0  0  0  0  0  0  0
    8.0622   -1.5600    0.0000 C   0  0  0  0  0  0  0  0  0  0  0  0
    8.0622   -3.5600    0.0000 C   0  0  0  0  0  0  0  0  0  0  0  0
    8.9282   -2.0600    0.0000 C   0  0  0  0  0  0  0  0  0  0  0  0
    8.9282   -3.0600    0.0000 C   0  0  0  0  0  0  0  0  0  0  0  0
    2.8660    1.4400    0.0000 C   0  0  0  0  0  0  0  0  0  0  0  0
    2.8660    2.4400    0.0000 C   0  0  0  0  0  0  0  0  0  0  0  0
    5.7932   -1.8700    0.0000 H   0  0  0  0  0  0  0  0  0  0  0  0
    6.3301    2.0600    0.0000 H   0  0  0  0  0  0  0  0  0  0  0  0
    4.9272    1.2500    0.0000 H   0  0  0  0  0  0  0  0  0  0  0  0
    8.3350   -0.9541    0.0000 H   0  0  0  0  0  0  0  0  0  0  0  0
    8.3350    1.8340    0.0000 H   0  0  0  0  0  0  0  0  0  0  0  0
    8.0622   -0.9400    0.0000 H   0  0  0  0  0  0  0  0  0  0  0  0
    3.1951   -0.3700    0.0000 H   0  0  0  0  0  0  0  0  0  0  0  0
    8.0622   -4.1800    0.0000 H   0  0  0  0  0  0  0  0  0  0  0  0
    9.4651   -1.7500    0.0000 H   0  0  0  0  0  0  0  0  0  0  0  0
    2.2554    1.5477    0.0000 H   0  0  0  0  0  0  0  0  0  0  0  0
    2.6540    0.8574    0.0000 H   0  0  0  0  0  0  0  0  0  0  0  0
    3.4766    2.3323    0.0000 H   0  0  0  0  0  0  0  0  0  0  0  0
    3.0781    3.0226    0.0000 H   0  0  0  0  0  0  0  0  0  0  0  0
    2.0000    3.5600    0.0000 H   0  0  0  0  0  0  0  0  0  0  0  0
  1 23  1  0  0  0  0
  2 19  1  0  0  0  0
  3  9  1  0  0  0  0
  3 24  1  0  0  0  0
  4 18  2  0  0  0  0
  5 25  1  0  0  0  0
  5 39  1  0  0  0  0
  6 10  1  0  0  0  0
  6 11  1  0  0  0  0
  6 15  1  0  0  0  0
  7 10  1  0  0  0  0
  7 17  1  0  0  0  0
  7 26  1  0  0  0  0
  8 15  2  0  0  0  0
  8 16  1  0  0  0  0
  9 18  1  0  0  0  0
  9 32  1  0  0  0  0
 10 12  2  0  0  0  0
 11 13  1  0  0  0  0
 11 16  2  0  0  0  0
 12 14  1  0  0  0  0
 12 18  1  0  0  0  0
 13 14  2  0  0  0  0
 13 27  1  0  0  0  0
 14 28  1  0  0  0  0
 15 29  1  0  0  0  0
 16 30  1  0  0  0  0
 17 19  2  0  0  0  0
 17 20  1  0  0  0  0
 19 21  1  0  0  0  0
 20 22  2  0  0  0  0
 20 31  1  0  0  0  0
 21 23  2  0  0  0  0
 21 33  1  0  0  0  0
 22 23  1  0  0  0  0
 22 34  1  0  0  0  0
 24 25  1  0  0  0  0
 24 35  1  0  0  0  0
 24 36  1  0  0  0  0
 25 37  1  0  0  0  0
 25 38  1  0  0  0  0
M  END
> <PUBCHEM_COMPOUND_CID>
42642654

> <PUBCHEM_COMPOUND_CANONICALIZED>
1

> <PUBCHEM_CACTVS_COMPLEXITY>
461

> <PUBCHEM_CACTVS_HBOND_ACCEPTOR>
6

> <PUBCHEM_CACTVS_HBOND_DONOR>
3

> <PUBCHEM_CACTVS_ROTATABLE_BOND>
6

> <PUBCHEM_CACTVS_SUBSKEYS>
AAADccB7sQAAAgAAAAAAAAAAAAAAAWAAAAA8QAAAAAAAAFgB8AAAHwA0CAAADAjjng498LfcGgCoAzd3dACCgC01EqAp2CE4dNiJePrA3ZGUIYhokALJyecYCQAcAAAAAAAAAAAAAAAAAAAAAAAAAAAAAA==

> <PUBCHEM_IUPAC_OPENEYE_NAME>
5-(2-fluoro-4-iodo-anilino)-N-(2-hydroxyethoxy)imidazo[1,5-a]pyridine-6-carboxamide

> <PUBCHEM_IUPAC_CAS_NAME>
5-(2-fluoro-4-iodoanilino)-N-(2-hydroxyethoxy)-6-imidazo[1,5-a]pyridinecarboxamide

> <PUBCHEM_IUPAC_NAME_MARKUP>
5-(2-fluoro-4-iodoanilino)-<I>N</I>-(2-hydroxyethoxy)imidazo[1,5-a]pyridine-6-carboxamide

> <PUBCHEM_IUPAC_NAME>
5-(2-fluoro-4-iodoanilino)-N-(2-hydroxyethoxy)imidazo[1,5-a]pyridine-6-carboxamide

> <PUBCHEM_IUPAC_SYSTEMATIC_NAME>
5-[(2-fluoranyl-4-iodanyl-phenyl)amino]-N-(2-hydroxyethyloxy)imidazo[1,5-a]pyridine-6-carboxamide

> <PUBCHEM_IUPAC_TRADITIONAL_NAME>
5-(2-fluoro-4-iodo-anilino)-N-(2-hydroxyethoxy)imidazo[1,5-a]pyridine-6-carboxamide

> <PUBCHEM_IUPAC_INCHI>
InChI=1S/C16H14FIN4O3/c17-13-7-10(18)1-4-14(13)20-15-12(16(24)21-25-6-5-23)3-2-11-8-19-9-22(11)15/h1-4,7-9,20,23H,5-6H2,(H,21,24)

> <PUBCHEM_IUPAC_INCHIKEY>
RFWVETIZUQEJEF-UHFFFAOYSA-N

> <PUBCHEM_XLOGP3_AA>
3.7

> <PUBCHEM_EXACT_MASS>
456.00947

> <PUBCHEM_MOLECULAR_FORMULA>
C16H14FIN4O3

> <PUBCHEM_MOLECULAR_WEIGHT>
456.21

> <PUBCHEM_OPENEYE_CAN_SMILES>
C1=CC(=C(C=C1I)F)NC2=C(C=CC3=CN=CN32)C(=O)NOCCO

> <PUBCHEM_OPENEYE_ISO_SMILES>
C1=CC(=C(C=C1I)F)NC2=C(C=CC3=CN=CN32)C(=O)NOCCO

> <PUBCHEM_CACTVS_TPSA>
87.9

> <PUBCHEM_MONOISOTOPIC_WEIGHT>
456.00947

> <PUBCHEM_TOTAL_CHARGE>
0

> <PUBCHEM_HEAVY_ATOM_COUNT>
25

> <PUBCHEM_ATOM_DEF_STEREO_COUNT>
0

> <PUBCHEM_ATOM_UDEF_STEREO_COUNT>
0

> <PUBCHEM_BOND_DEF_STEREO_COUNT>
0

> <PUBCHEM_BOND_UDEF_STEREO_COUNT>
0

> <PUBCHEM_ISOTOPIC_ATOM_COUNT>
0

> <PUBCHEM_COMPONENT_COUNT>
1

> <PUBCHEM_CACTVS_TAUTO_COUNT>
-1

> <PUBCHEM_COORDINATE_TYPE>
1
5
255

> <PUBCHEM_BONDANNOTATIONS>
10  12  8
11  13  8
11  16  8
12  14  8
13  14  8
17  19  8
17  20  8
19  21  8
20  22  8
21  23  8
22  23  8
6  10  8
6  11  8
6  15  8
8  15  8
8  16  8

$$$$
44182295
  -OEChem-11282409422D

 51 53  0     1  0  0  0  0  0999 V2000
    2.0000   -3.3100    0.0000 I   0  0  0  0  0  0  0  0  0  0  0  0
    8.0622    0.1900    0.0000 S   0  0  0  0  0  0  0  0  0  0  0  0
    5.4641   -3.3100    0.0000 F   0  0  0  0  0  0  0  0  0  0  0  0
    7.1962   -4.3100    0.0000 F   0  0  0  0  0  0  0  0  0  0  0  0
    3.7320   -0.3100    0.0000 F   0  0  0  0  0  0  0  0  0  0  0  0
    7.5622    1.0560    0.0000 O   0  0  0  0  0  0  0  0  0  0  0  0
    8.5622   -0.6760    0.0000 O   0  0  0  0  0  0  0  0  0  0  0  0
   10.6603    1.6900    0.0000 O   0  0  0  0  0  0  0  0  0  0  0  0
   10.6603    3.6900    0.0000 O   0  0  0  0  0  0  0  0  0  0  0  0
    8.9282   -1.3100    0.0000 O   0  0  0  0  0  0  0  0  0  0  0  0
    7.1962   -0.3100    0.0000 N   0  0  0  0  0  0  0  0  0  0  0  0
    5.4641   -1.3100    0.0000 N   0  0  0  0  0  0  0  0  0  0  0  0
    8.9282    0.6900    0.0000 C   0  0  0  0  0  0  0  0  0  0  0  0
    9.4282   -0.1760    0.0000 C   0  0  0  0  0  0  0  0  0  0  0  0
    9.9282    0.6900    0.0000 C   0  0  0  0  0  0  0  0  0  0  0  0
    8.9282    1.6900    0.0000 C   0  0  0  0  0  0  0  0  0  0  0  0
    9.7942    2.1900    0.0000 C   0  0  1  0  0  0  0  0  0  0  0  0
    9.7942    3.1900    0.0000 C   0  0  0  0  0  0  0  0  0  0  0  0
    7.1962   -1.3100    0.0000 C   0  0  0  0  0  0  0  0  0  0  0  0
    6.3301   -1.8100    0.0000 C   0  0  0  0  0  0  0  0  0  0  0  0
    8.0622   -1.8100    0.0000 C   0  0  0  0  0  0  0  0  0  0  0  0
    6.3301   -2.8100    0.0000 C   0  0  0  0  0  0  0  0  0  0  0  0
    8.0622   -2.8100    0.0000 C   0  0  0  0  0  0  0  0  0  0  0  0
    7.1962   -3.3100    0.0000 C   0  0  0  0  0  0  0  0  0  0  0  0
    4.5981   -1.8100    0.0000 C   0  0  0  0  0  0  0  0  0  0  0  0
    9.7942   -1.8100    0.0000 C   0  0  0  0  0  0  0  0  0  0  0  0
    3.7320   -1.3100    0.0000 C   0  0  0  0  0  0  0  0  0  0  0  0
    4.5981   -2.8100    0.0000 C   0  0  0  0  0  0  0  0  0  0  0  0
    2.8660   -1.8100    0.0000 C   0  0  0  0  0  0  0  0  0  0  0  0
    3.7320   -3.3100    0.0000 C   0  0  0  0  0  0  0  0  0  0  0  0
    2.8660   -2.8100    0.0000 C   0  0  0  0  0  0  0  0  0  0  0  0
    8.9533   -0.5746    0.0000 H   0  0  0  0  0  0  0  0  0  0  0  0
    9.9032   -0.5746    0.0000 H   0  0  0  0  0  0  0  0  0  0  0  0
   10.5108    0.4779    0.0000 H   0  0  0  0  0  0  0  0  0  0  0  0
   10.0359    1.3006    0.0000 H   0  0  0  0  0  0  0  0  0  0  0  0
    8.7162    2.2726    0.0000 H   0  0  0  0  0  0  0  0  0  0  0  0
    8.3176    1.5823    0.0000 H   0  0  0  0  0  0  0  0  0  0  0  0
    9.7942    1.5700    0.0000 H   0  0  0  0  0  0  0  0  0  0  0  0
    6.6592   -0.0000    0.0000 H   0  0  0  0  0  0  0  0  0  0  0  0
    9.5822    3.7726    0.0000 H   0  0  0  0  0  0  0  0  0  0  0  0
    9.1836    3.0823    0.0000 H   0  0  0  0  0  0  0  0  0  0  0  0
   11.1972    2.0000    0.0000 H   0  0  0  0  0  0  0  0  0  0  0  0
   10.6603    4.3100    0.0000 H   0  0  0  0  0  0  0  0  0  0  0  0
    8.5991   -3.1200    0.0000 H   0  0  0  0  0  0  0  0  0  0  0  0
    5.4641   -0.6900    0.0000 H   0  0  0  0  0  0  0  0  0  0  0  0
    9.4842   -2.3469    0.0000 H   0  0  0  0  0  0  0  0  0  0  0  0
   10.3312   -2.1200    0.0000 H   0  0  0  0  0  0  0  0  0  0  0  0
   10.1042   -1.2731    0.0000 H   0  0  0  0  0  0  0  0  0  0  0  0
    5.1350   -3.1200    0.0000 H   0  0  0  0  0  0  0  0  0  0  0  0
    2.3291   -1.5000    0.0000 H   0  0  0  0  0  0  0  0  0  0  0  0
    3.7320   -3.9300    0.0000 H   0  0  0  0  0  0  0  0  0  0  0  0
  1 31  1  0  0  0  0
  2  6  2  0  0  0  0
  2  7  2  0  0  0  0
  2 11  1  0  0  0  0
  2 13  1  0  0  0  0
  3 22  1  0  0  0  0
  4 24  1  0  0  0  0
  5 27  1  0  0  0  0
 17  8  1  1  0  0  0
  8 42  1  0  0  0  0
  9 18  1  0  0  0  0
  9 43  1  0  0  0  0
 10 21  1  0  0  0  0
 10 26  1  0  0  0  0
 11 19  1  0  0  0  0
 11 39  1  0  0  0  0
 12 20  1  0  0  0  0
 12 25  1  0  0  0  0
 12 45  1  0  0  0  0
 13 14  1  0  0  0  0
 13 15  1  0  0  0  0
 13 16  1  0  0  0  0
 14 15  1  0  0  0  0
 14 32  1  0  0  0  0
 14 33  1  0  0  0  0
 15 34  1  0  0  0  0
 15 35  1  0  0  0  0
 16 17  1  0  0  0  0
 16 36  1  0  0  0  0
 16 37  1  0  0  0  0
 17 18  1  0  0  0  0
 17 38  1  0  0  0  0
 18 40  1  0  0  0  0
 18 41  1  0  0  0  0
 19 20  2  0  0  0  0
 19 21  1  0  0  0  0
 20 22  1  0  0  0  0
 21 23  2  0  0  0  0
 22 24  2  0  0  0  0
 23 24  1  0  0  0  0
 23 44  1  0  0  0  0
 25 27  2  0  0  0  0
 25 28  1  0  0  0  0
 26 46  1  0  0  0  0
 26 47  1  0  0  0  0
 26 48  1  0  0  0  0
 27 29  1  0  0  0  0
 28 30  2  0  0  0  0
 28 49  1  0  0  0  0
 29 31  2  0  0  0  0
 29 50  1  0  0  0  0
 30 31  1  0  0  0  0
 30 51  1  0  0  0  0
M  END
> <PUBCHEM_COMPOUND_CID>
44182295

> <PUBCHEM_COMPOUND_CANONICALIZED>
1

> <PUBCHEM_CACTVS_COMPLEXITY>
711

> <PUBCHEM_CACTVS_HBOND_ACCEPTOR>
10

> <PUBCHEM_CACTVS_HBOND_DONOR>
4

> <PUBCHEM_CACTVS_ROTATABLE_BOND>
9

> <PUBCHEM_CACTVS_SUBSKEYS>
AAADceB7OYBAAgAAAAAAAAAAGAAAAAAAAAAwYAAAAAAAAAABQAAAHwQwSAAADByj0AoyxoLABgKAACRCQHDCCAAhIgAIiAAHfIgPdmLEsZuVcChm0BnJ6AeQUAMMAAAAAgAAECAAAAAEAAAgQAAAAAAAAA==

> <PUBCHEM_IUPAC_OPENEYE_NAME>
N-[3,4-difluoro-2-(2-fluoro-4-iodo-anilino)-6-methoxy-phenyl]-1-[(2S)-2,3-dihydroxypropyl]cyclopropanesulfonamide

> <PUBCHEM_IUPAC_CAS_NAME>
N-[3,4-difluoro-2-(2-fluoro-4-iodoanilino)-6-methoxyphenyl]-1-[(2S)-2,3-dihydroxypropyl]-1-cyclopropanesulfonamide

> <PUBCHEM_IUPAC_NAME_MARKUP>
<I>N</I>-[3,4-difluoro-2-(2-fluoro-4-iodoanilino)-6-methoxyphenyl]-1-[(2<I>S</I>)-2,3-dihydroxypropyl]cyclopropane-1-sulfonamide

> <PUBCHEM_IUPAC_NAME>
N-[3,4-difluoro-2-(2-fluoro-4-iodoanilino)-6-methoxyphenyl]-1-[(2S)-2,3-dihydroxypropyl]cyclopropane-1-sulfonamide

> <PUBCHEM_IUPAC_SYSTEMATIC_NAME>
N-[3,4-bis(fluoranyl)-2-[(2-fluoranyl-4-iodanyl-phenyl)amino]-6-methoxy-phenyl]-1-[(2S)-2,3-bis(oxidanyl)propyl]cyclopropane-1-sulfonamide

> <PUBCHEM_IUPAC_TRADITIONAL_NAME>
N-[3,4-difluoro-2-(2-fluoro-4-iodo-anilino)-6-methoxy-phenyl]-1-[(2S)-2,3-dihydroxypropyl]cyclopropanesulfonamide

> <PUBCHEM_IUPAC_INCHI>
InChI=1S/C19H20F3IN2O5S/c1-30-15-7-13(21)16(22)18(24-14-3-2-10(23)6-12(14)20)17(15)25-31(28,29)19(4-5-19)8-11(27)9-26/h2-3,6-7,11,24-27H,4-5,8-9H2,1H3/t11-/m0/s1

> <PUBCHEM_IUPAC_INCHIKEY>
RDSACQWTXKSHJT-NSHDSACASA-N

> <PUBCHEM_XLOGP3_AA>
2.8

> <PUBCHEM_EXACT_MASS>
572.00897

> <PUBCHEM_MOLECULAR_FORMULA>
C19H20F3IN2O5S

> <PUBCHEM_MOLECULAR_WEIGHT>
572.3

> <PUBCHEM_OPENEYE_CAN_SMILES>
COC1=CC(=C(C(=C1NS(=O)(=O)C2(CC2)CC(CO)O)NC3=C(C=C(C=C3)I)F)F)F

> <PUBCHEM_OPENEYE_ISO_SMILES>
COC1=CC(=C(C(=C1NS(=O)(=O)C2(CC2)C[C@@H](CO)O)NC3=C(C=C(C=C3)I)F)F)F

> <PUBCHEM_CACTVS_TPSA>
116

> <PUBCHEM_MONOISOTOPIC_WEIGHT>
572.00897

> <PUBCHEM_TOTAL_CHARGE>
0

> <PUBCHEM_HEAVY_ATOM_COUNT>
31

> <PUBCHEM_ATOM_DEF_STEREO_COUNT>
1

> <PUBCHEM_ATOM_UDEF_STEREO_COUNT>
0

> <PUBCHEM_BOND_DEF_STEREO_COUNT>
0

> <PUBCHEM_BOND_UDEF_STEREO_COUNT>
0

> <PUBCHEM_ISOTOPIC_ATOM_COUNT>
0

> <PUBCHEM_COMPONENT_COUNT>
1

> <PUBCHEM_CACTVS_TAUTO_COUNT>
-1

> <PUBCHEM_COORDINATE_TYPE>
1
5
255

> <PUBCHEM_BONDANNOTATIONS>
19  20  8
19  21  8
20  22  8
21  23  8
22  24  8
23  24  8
25  27  8
25  28  8
27  29  8
28  30  8
29  31  8
30  31  8
17  8  5

$$$$
71621329
  -OEChem-11282409422D

 38 40  0     0  0  0  0  0  0999 V2000
    4.2690    5.1550    0.0000 I   0  0  0  0  0  0  0  0  0  0  0  0
    7.8133   -0.6497    0.0000 S   0  0  0  0  0  0  0  0  0  0  0  0
    6.0010    2.1550    0.0000 F   0  0  0  0  0  0  0  0  0  0  0  0
    2.5369    2.1550    0.0000 F   0  0  0  0  0  0  0  0  0  0  0  0
    3.4030   -2.3450    0.0000 O   0  0  0  0  0  0  0  0  0  0  0  0
    3.4030   -0.3450    0.0000 O   0  0  0  0  0  0  0  0  0  0  0  0
    2.5369   -4.8450    0.0000 O   0  0  0  0  0  0  0  0  0  0  0  0
    4.2690    1.1550    0.0000 N   0  0  0  0  0  0  0  0  0  0  0  0
    7.8133    0.9597    0.0000 N   0  0  0  0  0  0  0  0  0  0  0  0
    4.2690   -1.8450    0.0000 N   0  0  0  0  0  0  0  0  0  0  0  0
    5.1350    0.6550    0.0000 C   0  0  0  0  0  0  0  0  0  0  0  0
    5.1350   -0.3450    0.0000 C   0  0  0  0  0  0  0  0  0  0  0  0
    6.8671    0.6550    0.0000 C   0  0  0  0  0  0  0  0  0  0  0  0
    6.8671   -0.3450    0.0000 C   0  0  0  0  0  0  0  0  0  0  0  0
    6.0010    1.1550    0.0000 C   0  0  0  0  0  0  0  0  0  0  0  0
    6.0010   -0.8450    0.0000 C   0  0  0  0  0  0  0  0  0  0  0  0
    4.2690    2.1550    0.0000 C   0  0  0  0  0  0  0  0  0  0  0  0
    4.2690   -0.8450    0.0000 C   0  0  0  0  0  0  0  0  0  0  0  0
    3.4030    2.6550    0.0000 C   0  0  0  0  0  0  0  0  0  0  0  0
    5.1350    2.6550    0.0000 C   0  0  0  0  0  0  0  0  0  0  0  0
    8.3969    0.1550    0.0000 C   0  0  0  0  0  0  0  0  0  0  0  0
    3.4030    3.6550    0.0000 C   0  0  0  0  0  0  0  0  0  0  0  0
    5.1350    3.6550    0.0000 C   0  0  0  0  0  0  0  0  0  0  0  0
    4.2690    4.1550    0.0000 C   0  0  0  0  0  0  0  0  0  0  0  0
    3.4030   -3.3450    0.0000 C   0  0  0  0  0  0  0  0  0  0  0  0
    2.5369   -3.8450    0.0000 C   0  0  0  0  0  0  0  0  0  0  0  0
    6.0010   -1.4650    0.0000 H   0  0  0  0  0  0  0  0  0  0  0  0
    3.7320    0.8450    0.0000 H   0  0  0  0  0  0  0  0  0  0  0  0
    5.6720    2.3450    0.0000 H   0  0  0  0  0  0  0  0  0  0  0  0
    9.0169    0.1550    0.0000 H   0  0  0  0  0  0  0  0  0  0  0  0
    4.8059   -2.1550    0.0000 H   0  0  0  0  0  0  0  0  0  0  0  0
    2.8660    3.9650    0.0000 H   0  0  0  0  0  0  0  0  0  0  0  0
    5.6720    3.9650    0.0000 H   0  0  0  0  0  0  0  0  0  0  0  0
    3.6150   -3.9276    0.0000 H   0  0  0  0  0  0  0  0  0  0  0  0
    4.0135   -3.2373    0.0000 H   0  0  0  0  0  0  0  0  0  0  0  0
    2.3249   -3.2624    0.0000 H   0  0  0  0  0  0  0  0  0  0  0  0
    1.9264   -3.9527    0.0000 H   0  0  0  0  0  0  0  0  0  0  0  0
    2.0000   -5.1550    0.0000 H   0  0  0  0  0  0  0  0  0  0  0  0
  1 24  1  0  0  0  0
  2 14  1  0  0  0  0
  2 21  1  0  0  0  0
  3 15  1  0  0  0  0
  4 19  1  0  0  0  0
  5 10  1  0  0  0  0
  5 25  1  0  0  0  0
  6 18  2  0  0  0  0
  7 26  1  0  0  0  0
  7 38  1  0  0  0  0
  8 11  1  0  0  0  0
  8 17  1  0  0  0  0
  8 28  1  0  0  0  0
  9 13  1  0  0  0  0
  9 21  2  0  0  0  0
 10 18  1  0  0  0  0
 10 31  1  0  0  0  0
 11 12  1  0  0  0  0
 11 15  2  0  0  0  0
 12 16  2  0  0  0  0
 12 18  1  0  0  0  0
 13 14  2  0  0  0  0
 13 15  1  0  0  0  0
 14 16  1  0  0  0  0
 16 27  1  0  0  0  0
 17 19  2  0  0  0  0
 17 20  1  0  0  0  0
 19 22  1  0  0  0  0
 20 23  2  0  0  0  0
 20 29  1  0  0  0  0
 21 30  1  0  0  0  0
 22 24  2  0  0  0  0
 22 32  1  0  0  0  0
 23 24  1  0  0  0  0
 23 33  1  0  0  0  0
 25 26  1  0  0  0  0
 25 34  1  0  0  0  0
 25 35  1  0  0  0  0
 26 36  1  0  0  0  0
 26 37  1  0  0  0  0
M  END
> <PUBCHEM_COMPOUND_CID>
71621329

> <PUBCHEM_COMPOUND_CANONICALIZED>
1

> <PUBCHEM_CACTVS_COMPLEXITY>
496

> <PUBCHEM_CACTVS_HBOND_ACCEPTOR>
8

> <PUBCHEM_CACTVS_HBOND_DONOR>
3

> <PUBCHEM_CACTVS_ROTATABLE_BOND>
6

> <PUBCHEM_CACTVS_SUBSKEYS>
AAADccB7MYBAAgAAAAAAAAAAAAAAAWAAAAAwYAAAAAAAAFgB9AAAHwQ0CAAADAij3g60wbLYEgisAyVzVACD8KB1Cjho2D0oZNgJMPrg1dGEJYhgkADJyccYiQCeCAQAgAQCAQAQCAEACAQCAAAAAAAAAA==

> <PUBCHEM_IUPAC_OPENEYE_NAME>
4-fluoro-5-(2-fluoro-4-iodo-anilino)-N-(2-hydroxyethoxy)-1,3-benzothiazole-6-carboxamide

> <PUBCHEM_IUPAC_CAS_NAME>
4-fluoro-5-(2-fluoro-4-iodoanilino)-N-(2-hydroxyethoxy)-1,3-benzothiazole-6-carboxamide

> <PUBCHEM_IUPAC_NAME_MARKUP>
4-fluoro-5-(2-fluoro-4-iodoanilino)-<I>N</I>-(2-hydroxyethoxy)-1,3-benzothiazole-6-carboxamide

> <PUBCHEM_IUPAC_NAME>
4-fluoro-5-(2-fluoro-4-iodoanilino)-N-(2-hydroxyethoxy)-1,3-benzothiazole-6-carboxamide

> <PUBCHEM_IUPAC_SYSTEMATIC_NAME>
4-fluoranyl-5-[(2-fluoranyl-4-iodanyl-phenyl)amino]-N-(2-hydroxyethyloxy)-1,3-benzothiazole-6-carboxamide

> <PUBCHEM_IUPAC_TRADITIONAL_NAME>
4-fluoro-5-(2-fluoro-4-iodo-anilino)-N-(2-hydroxyethoxy)-1,3-benzothiazole-6-carboxamide

> <PUBCHEM_IUPAC_INCHI>
InChI=1S/C16H12F2IN3O3S/c17-10-5-8(19)1-2-11(10)21-14-9(16(24)22-25-4-3-23)6-12-15(13(14)18)20-7-26-12/h1-2,5-7,21,23H,3-4H2,(H,22,24)

> <PUBCHEM_IUPAC_INCHIKEY>
UFZJUVFSSINETF-UHFFFAOYSA-N

> <PUBCHEM_XLOGP3_AA>
4

> <PUBCHEM_EXACT_MASS>
490.96122

> <PUBCHEM_MOLECULAR_FORMULA>
C16H12F2IN3O3S

> <PUBCHEM_MOLECULAR_WEIGHT>
491.3

> <PUBCHEM_OPENEYE_CAN_SMILES>
C1=CC(=C(C=C1I)F)NC2=C(C3=C(C=C2C(=O)NOCCO)SC=N3)F

> <PUBCHEM_OPENEYE_ISO_SMILES>
C1=CC(=C(C=C1I)F)NC2=C(C3=C(C=C2C(=O)NOCCO)SC=N3)F

> <PUBCHEM_CACTVS_TPSA>
112

> <PUBCHEM_MONOISOTOPIC_WEIGHT>
490.96122

> <PUBCHEM_TOTAL_CHARGE>
0

> <PUBCHEM_HEAVY_ATOM_COUNT>
26

> <PUBCHEM_ATOM_DEF_STEREO_COUNT>
0

> <PUBCHEM_ATOM_UDEF_STEREO_COUNT>
0

> <PUBCHEM_BOND_DEF_STEREO_COUNT>
0

> <PUBCHEM_BOND_UDEF_STEREO_COUNT>
0

> <PUBCHEM_ISOTOPIC_ATOM_COUNT>
0

> <PUBCHEM_COMPONENT_COUNT>
1

> <PUBCHEM_CACTVS_TAUTO_COUNT>
-1

> <PUBCHEM_COORDINATE_TYPE>
1
5
255

> <PUBCHEM_BONDANNOTATIONS>
11  12  8
11  15  8
12  16  8
13  14  8
13  15  8
14  16  8
17  19  8
17  20  8
19  22  8
2  14  8
2  21  8
20  23  8
22  24  8
23  24  8
9  13  8
9  21  8

$$$$
16719221
  -OEChem-11282409422D

 51 54  0     0  0  0  0  0  0999 V2000
   14.1961    0.0173    0.0000 S   0  0  0  0  0  0  0  0  0  0  0  0
   11.5981    1.5173    0.0000 F   0  0  0  0  0  0  0  0  0  0  0  0
    8.1340   -1.4827    0.0000 O   0  0  0  0  0  0  0  0  0  0  0  0
    9.8660   -1.4827    0.0000 O   0  0  0  0  0  0  0  0  0  0  0  0
    4.6038   -1.5068    0.0000 O   0  0  0  0  0  0  0  0  0  0  0  0
   14.6961    0.8834    0.0000 O   0  0  0  0  0  0  0  0  0  0  0  0
   13.6961   -0.8487    0.0000 O   0  0  0  0  0  0  0  0  0  0  0  0
   13.3301    0.5173    0.0000 N   0  0  0  0  0  0  0  0  0  0  0  0
   12.4641   -0.9827    0.0000 N   0  0  0  0  0  0  0  0  0  0  0  0
   15.0622   -0.4827    0.0000 N   0  0  0  0  0  0  0  0  0  0  0  0
    3.7320   -0.0102    0.0000 N   0  0  0  0  0  0  0  0  0  0  0  0
    2.8718   -1.5135    0.0000 N   0  0  0  0  0  0  0  0  0  0  0  0
    9.0000    0.0173    0.0000 C   0  0  0  0  0  0  0  0  0  0  0  0
    8.1340    0.5173    0.0000 C   0  0  0  0  0  0  0  0  0  0  0  0
    9.8660    0.5173    0.0000 C   0  0  0  0  0  0  0  0  0  0  0  0
    7.2679    0.0173    0.0000 C   0  0  0  0  0  0  0  0  0  0  0  0
   10.7320    0.0173    0.0000 C   0  0  0  0  0  0  0  0  0  0  0  0
    7.2679   -0.9827    0.0000 C   0  0  0  0  0  0  0  0  0  0  0  0
    9.0000   -0.9827    0.0000 C   0  0  0  0  0  0  0  0  0  0  0  0
    8.1340    1.5173    0.0000 C   0  0  0  0  0  0  0  0  0  0  0  0
    6.3740    0.5520    0.0000 C   0  0  0  0  0  0  0  0  0  0  0  0
    6.3740   -1.5173    0.0000 C   0  0  0  0  0  0  0  0  0  0  0  0
   11.5981    0.5173    0.0000 C   0  0  0  0  0  0  0  0  0  0  0  0
   10.7320   -0.9827    0.0000 C   0  0  0  0  0  0  0  0  0  0  0  0
    5.4679   -1.0035    0.0000 C   0  0  0  0  0  0  0  0  0  0  0  0
    5.4679    0.0381    0.0000 C   0  0  0  0  0  0  0  0  0  0  0  0
   12.4641    0.0173    0.0000 C   0  0  0  0  0  0  0  0  0  0  0  0
   11.5981   -1.4827    0.0000 C   0  0  0  0  0  0  0  0  0  0  0  0
    3.7359   -1.0102    0.0000 C   0  0  0  0  0  0  0  0  0  0  0  0
   15.9282    0.0173    0.0000 C   0  0  0  0  0  0  0  0  0  0  0  0
    2.8641    0.4865    0.0000 C   0  0  0  0  0  0  0  0  0  0  0  0
    2.0038   -1.0168    0.0000 C   0  0  0  0  0  0  0  0  0  0  0  0
    2.0000   -0.0168    0.0000 C   0  0  0  0  0  0  0  0  0  0  0  0
   10.2645    0.9923    0.0000 H   0  0  0  0  0  0  0  0  0  0  0  0
    9.4675    0.9923    0.0000 H   0  0  0  0  0  0  0  0  0  0  0  0
    8.7540    1.5173    0.0000 H   0  0  0  0  0  0  0  0  0  0  0  0
    8.1340    2.1373    0.0000 H   0  0  0  0  0  0  0  0  0  0  0  0
    7.5140    1.5173    0.0000 H   0  0  0  0  0  0  0  0  0  0  0  0
    6.3812    1.1720    0.0000 H   0  0  0  0  0  0  0  0  0  0  0  0
    6.3812   -2.1373    0.0000 H   0  0  0  0  0  0  0  0  0  0  0  0
   10.1951   -1.2927    0.0000 H   0  0  0  0  0  0  0  0  0  0  0  0
    4.9322    0.3502    0.0000 H   0  0  0  0  0  0  0  0  0  0  0  0
   11.5981   -2.1027    0.0000 H   0  0  0  0  0  0  0  0  0  0  0  0
   13.3301    1.1373    0.0000 H   0  0  0  0  0  0  0  0  0  0  0  0
   15.0622   -1.1027    0.0000 H   0  0  0  0  0  0  0  0  0  0  0  0
   16.2382   -0.5196    0.0000 H   0  0  0  0  0  0  0  0  0  0  0  0
   16.4651    0.3273    0.0000 H   0  0  0  0  0  0  0  0  0  0  0  0
   15.6182    0.5543    0.0000 H   0  0  0  0  0  0  0  0  0  0  0  0
    2.8617    1.1065    0.0000 H   0  0  0  0  0  0  0  0  0  0  0  0
    1.4681   -1.3289    0.0000 H   0  0  0  0  0  0  0  0  0  0  0  0
    1.4619    0.2911    0.0000 H   0  0  0  0  0  0  0  0  0  0  0  0
  1  6  2  0  0  0  0
  1  7  2  0  0  0  0
  1  8  1  0  0  0  0
  1 10  1  0  0  0  0
  2 23  1  0  0  0  0
  3 18  1  0  0  0  0
  3 19  1  0  0  0  0
  4 19  2  0  0  0  0
  5 25  1  0  0  0  0
  5 29  1  0  0  0  0
  8 27  1  0  0  0  0
  8 44  1  0  0  0  0
  9 27  2  0  0  0  0
  9 28  1  0  0  0  0
 10 30  1  0  0  0  0
 10 45  1  0  0  0  0
 11 29  1  0  0  0  0
 11 31  2  0  0  0  0
 12 29  2  0  0  0  0
 12 32  1  0  0  0  0
 13 14  2  0  0  0  0
 13 15  1  0  0  0  0
 13 19  1  0  0  0  0
 14 16  1  0  0  0  0
 14 20  1  0  0  0  0
 15 17  1  0  0  0  0
 15 34  1  0  0  0  0
 15 35  1  0  0  0  0
 16 18  2  0  0  0  0
 16 21  1  0  0  0  0
 17 23  2  0  0  0  0
 17 24  1  0  0  0  0
 18 22  1  0  0  0  0
 20 36  1  0  0  0  0
 20 37  1  0  0  0  0
 20 38  1  0  0  0  0
 21 26  2  0  0  0  0
 21 39  1  0  0  0  0
 22 25  2  0  0  0  0
 22 40  1  0  0  0  0
 23 27  1  0  0  0  0
 24 28  2  0  0  0  0
 24 41  1  0  0  0  0
 25 26  1  0  0  0  0
 26 42  1  0  0  0  0
 28 43  1  0  0  0  0
 30 46  1  0  0  0  0
 30 47  1  0  0  0  0
 30 48  1  0  0  0  0
 31 33  1  0  0  0  0
 31 49  1  0  0  0  0
 32 33  2  0  0  0  0
 32 50  1  0  0  0  0
 33 51  1  0  0  0  0
M  END
> <PUBCHEM_COMPOUND_CID>
16719221

> <PUBCHEM_COMPOUND_CANONICALIZED>
1

> <PUBCHEM_CACTVS_COMPLEXITY>
845

> <PUBCHEM_CACTVS_HBOND_ACCEPTOR>
11

> <PUBCHEM_CACTVS_HBOND_DONOR>
2

> <PUBCHEM_CACTVS_ROTATABLE_BOND>
7

> <PUBCHEM_CACTVS_SUBSKEYS>
AAADceB7uQBAAAAAAAAAAAAAAAAAAAAAAAA8WIEAAAAAAACB8AAAHwAQQAAADATBmgw/vpZIFACoAjL3bDCCiCkxIqAJ2KE+bNiML/LE+duOPijtwBfI6SeY6KwOIAAACAAIAABAAAAQABAAAAAAAAAAAA==

> <PUBCHEM_IUPAC_OPENEYE_NAME>
3-[[3-fluoro-2-(methylsulfamoylamino)-4-pyridyl]methyl]-4-methyl-7-pyrimidin-2-yloxy-chromen-2-one

> <PUBCHEM_IUPAC_CAS_NAME>
3-[[3-fluoro-2-(methylsulfamoylamino)-4-pyridinyl]methyl]-4-methyl-7-(2-pyrimidinyloxy)-1-benzopyran-2-one

> <PUBCHEM_IUPAC_NAME_MARKUP>
3-[[3-fluoro-2-(methylsulfamoylamino)pyridin-4-yl]methyl]-4-methyl-7-pyrimidin-2-yloxychromen-2-one

> <PUBCHEM_IUPAC_NAME>
3-[[3-fluoro-2-(methylsulfamoylamino)pyridin-4-yl]methyl]-4-methyl-7-pyrimidin-2-yloxychromen-2-one

> <PUBCHEM_IUPAC_SYSTEMATIC_NAME>
3-[[3-fluoranyl-2-(methylsulfamoylamino)pyridin-4-yl]methyl]-4-methyl-7-pyrimidin-2-yloxy-chromen-2-one

> <PUBCHEM_IUPAC_TRADITIONAL_NAME>
3-[[3-fluoro-2-(methylsulfamoylamino)-4-pyridyl]methyl]-4-methyl-7-(2-pyrimidyloxy)coumarin

> <PUBCHEM_IUPAC_INCHI>
InChI=1S/C21H18FN5O5S/c1-12-15-5-4-14(31-21-25-7-3-8-26-21)11-17(15)32-20(28)16(12)10-13-6-9-24-19(18(13)22)27-33(29,30)23-2/h3-9,11,23H,10H2,1-2H3,(H,24,27)

> <PUBCHEM_IUPAC_INCHIKEY>
LMMJFBMMJUMSJS-UHFFFAOYSA-N

> <PUBCHEM_XLOGP3_AA>
2

> <PUBCHEM_EXACT_MASS>
471.10126803

> <PUBCHEM_MOLECULAR_FORMULA>
C21H18FN5O5S

> <PUBCHEM_MOLECULAR_WEIGHT>
471.5

> <PUBCHEM_OPENEYE_CAN_SMILES>
CC1=C(C(=O)OC2=C1C=CC(=C2)OC3=NC=CC=N3)CC4=C(C(=NC=C4)NS(=O)(=O)NC)F

> <PUBCHEM_OPENEYE_ISO_SMILES>
CC1=C(C(=O)OC2=C1C=CC(=C2)OC3=NC=CC=N3)CC4=C(C(=NC=C4)NS(=O)(=O)NC)F

> <PUBCHEM_CACTVS_TPSA>
141

> <PUBCHEM_MONOISOTOPIC_WEIGHT>
471.10126803

> <PUBCHEM_TOTAL_CHARGE>
0

> <PUBCHEM_HEAVY_ATOM_COUNT>
33

> <PUBCHEM_ATOM_DEF_STEREO_COUNT>
0

> <PUBCHEM_ATOM_UDEF_STEREO_COUNT>
0

> <PUBCHEM_BOND_DEF_STEREO_COUNT>
0

> <PUBCHEM_BOND_UDEF_STEREO_COUNT>
0

> <PUBCHEM_ISOTOPIC_ATOM_COUNT>
0

> <PUBCHEM_COMPONENT_COUNT>
1

> <PUBCHEM_CACTVS_TAUTO_COUNT>
-1

> <PUBCHEM_COORDINATE_TYPE>
1
5
255

> <PUBCHEM_BONDANNOTATIONS>
11  29  8
11  31  8
12  29  8
12  32  8
13  14  8
13  19  8
14  16  8
16  18  8
16  21  8
17  23  8
17  24  8
18  22  8
21  26  8
22  25  8
23  27  8
24  28  8
25  26  8
3  18  8
3  19  8
31  33  8
32  33  8
9  27  8
9  28  8

$$$$
9549284
  -OEChem-11282409422D

 35 36  0     0  0  0  0  0  0999 V2000
    5.4641    0.9400    0.0000 S   0  0  0  0  0  0  0  0  0  0  0  0
    2.0000   -1.0600    0.0000 F   0  0  0  0  0  0  0  0  0  0  0  0
    2.3660   -2.4260    0.0000 F   0  0  0  0  0  0  0  0  0  0  0  0
    3.3660   -0.6940    0.0000 F   0  0  0  0  0  0  0  0  0  0  0  0
    6.3301   -0.5600    0.0000 N   0  0  0  0  0  0  0  0  0  0  0  0
    8.9282    2.9400    0.0000 N   0  0  0  0  0  0  0  0  0  0  0  0
    2.8660    0.4400    0.0000 N   0  0  0  0  0  0  0  0  0  0  0  0
    4.5981   -1.5600    0.0000 C   0  0  0  0  0  0  0  0  0  0  0  0
    3.7320   -2.0600    0.0000 C   0  0  0  0  0  0  0  0  0  0  0  0
    4.5981   -0.5600    0.0000 C   0  0  0  0  0  0  0  0  0  0  0  0
    5.4641   -2.0600    0.0000 C   0  0  0  0  0  0  0  0  0  0  0  0
    3.7320   -3.0600    0.0000 C   0  0  0  0  0  0  0  0  0  0  0  0
    2.8660   -1.5600    0.0000 C   0  0  0  0  0  0  0  0  0  0  0  0
    5.4641   -0.0600    0.0000 C   0  0  0  0  0  0  0  0  0  0  0  0
    5.4641   -3.0600    0.0000 C   0  0  0  0  0  0  0  0  0  0  0  0
    4.5981   -3.5600    0.0000 C   0  0  0  0  0  0  0  0  0  0  0  0
    6.3301    1.4400    0.0000 C   0  0  0  0  0  0  0  0  0  0  0  0
    7.1962    0.9400    0.0000 C   0  0  0  0  0  0  0  0  0  0  0  0
    6.3301    2.4400    0.0000 C   0  0  0  0  0  0  0  0  0  0  0  0
    8.0622    2.4400    0.0000 C   0  0  0  0  0  0  0  0  0  0  0  0
    8.0622    1.4400    0.0000 C   0  0  0  0  0  0  0  0  0  0  0  0
    7.1962    2.9400    0.0000 C   0  0  0  0  0  0  0  0  0  0  0  0
    3.7320   -0.0600    0.0000 C   0  0  0  0  0  0  0  0  0  0  0  0
    6.0010   -1.7500    0.0000 H   0  0  0  0  0  0  0  0  0  0  0  0
    3.1951   -3.3700    0.0000 H   0  0  0  0  0  0  0  0  0  0  0  0
    6.0010   -3.3700    0.0000 H   0  0  0  0  0  0  0  0  0  0  0  0
    4.5981   -4.1800    0.0000 H   0  0  0  0  0  0  0  0  0  0  0  0
    7.1962    0.3200    0.0000 H   0  0  0  0  0  0  0  0  0  0  0  0
    5.7932    2.7500    0.0000 H   0  0  0  0  0  0  0  0  0  0  0  0
    8.5991    1.1300    0.0000 H   0  0  0  0  0  0  0  0  0  0  0  0
    7.1962    3.5600    0.0000 H   0  0  0  0  0  0  0  0  0  0  0  0
    6.8671   -0.2500    0.0000 H   0  0  0  0  0  0  0  0  0  0  0  0
    6.3301   -1.1800    0.0000 H   0  0  0  0  0  0  0  0  0  0  0  0
    8.9282    3.5600    0.0000 H   0  0  0  0  0  0  0  0  0  0  0  0
    9.4651    2.6300    0.0000 H   0  0  0  0  0  0  0  0  0  0  0  0
  1 14  1  0  0  0  0
  1 17  1  0  0  0  0
  2 13  1  0  0  0  0
  3 13  1  0  0  0  0
  4 13  1  0  0  0  0
  5 14  1  0  0  0  0
  5 32  1  0  0  0  0
  5 33  1  0  0  0  0
  6 20  1  0  0  0  0
  6 34  1  0  0  0  0
  6 35  1  0  0  0  0
  7 23  3  0  0  0  0
  8  9  1  0  0  0  0
  8 10  1  0  0  0  0
  8 11  2  0  0  0  0
  9 12  2  0  0  0  0
  9 13  1  0  0  0  0
 10 14  2  0  0  0  0
 10 23  1  0  0  0  0
 11 15  1  0  0  0  0
 11 24  1  0  0  0  0
 12 16  1  0  0  0  0
 12 25  1  0  0  0  0
 15 16  2  0  0  0  0
 15 26  1  0  0  0  0
 16 27  1  0  0  0  0
 17 18  2  0  0  0  0
 17 19  1  0  0  0  0
 18 21  1  0  0  0  0
 18 28  1  0  0  0  0
 19 22  2  0  0  0  0
 19 29  1  0  0  0  0
 20 21  2  0  0  0  0
 20 22  1  0  0  0  0
 21 30  1  0  0  0  0
 22 31  1  0  0  0  0
M  END
> <PUBCHEM_COMPOUND_CID>
9549284

> <PUBCHEM_COMPOUND_CANONICALIZED>
1

> <PUBCHEM_CACTVS_COMPLEXITY>
487

> <PUBCHEM_CACTVS_HBOND_ACCEPTOR>
7

> <PUBCHEM_CACTVS_HBOND_DONOR>
2

> <PUBCHEM_CACTVS_ROTATABLE_BOND>
3

> <PUBCHEM_CACTVS_SUBSKEYS>
AAADccB7AYBAAAAAAAAAAAAAAAAAAAAAAAAwYAAAAAAAAAABQAAAHQQQAAAADAiBWBAwwYBAAAiQBiRCQACiAABgChAIiBgAZIgIoCKgkZGAIABgkAAIyA8QgIAOgAQAAAAQAAAACAAAACAAAAAAAAAAAA==

> <PUBCHEM_IUPAC_OPENEYE_NAME>
(Z)-3-amino-3-(4-aminophenyl)sulfanyl-2-[2-(trifluoromethyl)phenyl]prop-2-enenitrile

> <PUBCHEM_IUPAC_CAS_NAME>
(Z)-3-amino-3-[(4-aminophenyl)thio]-2-[2-(trifluoromethyl)phenyl]-2-propenenitrile

> <PUBCHEM_IUPAC_NAME_MARKUP>
(<I>Z</I>)-3-amino-3-(4-aminophenyl)sulfanyl-2-[2-(trifluoromethyl)phenyl]prop-2-enenitrile

> <PUBCHEM_IUPAC_NAME>
(Z)-3-amino-3-(4-aminophenyl)sulfanyl-2-[2-(trifluoromethyl)phenyl]prop-2-enenitrile

> <PUBCHEM_IUPAC_SYSTEMATIC_NAME>
(Z)-3-(4-aminophenyl)sulfanyl-3-azanyl-2-[2-(trifluoromethyl)phenyl]prop-2-enenitrile

> <PUBCHEM_IUPAC_TRADITIONAL_NAME>
(Z)-3-amino-3-[(4-aminophenyl)thio]-2-[2-(trifluoromethyl)phenyl]acrylonitrile

> <PUBCHEM_IUPAC_INCHI>
InChI=1S/C16H12F3N3S/c17-16(18,19)14-4-2-1-3-12(14)13(9-20)15(22)23-11-7-5-10(21)6-8-11/h1-8H,21-22H2/b15-13+

> <PUBCHEM_IUPAC_INCHIKEY>
JLOXTZFYJNCPIS-FYWRMAATSA-N

> <PUBCHEM_XLOGP3_AA>
3.7

> <PUBCHEM_EXACT_MASS>
335.07040306

> <PUBCHEM_MOLECULAR_FORMULA>
C16H12F3N3S

> <PUBCHEM_MOLECULAR_WEIGHT>
335.3

> <PUBCHEM_OPENEYE_CAN_SMILES>
C1=CC=C(C(=C1)C(=C(N)SC2=CC=C(C=C2)N)C#N)C(F)(F)F

> <PUBCHEM_OPENEYE_ISO_SMILES>
C1=CC=C(C(=C1)/C(=C(\N)/SC2=CC=C(C=C2)N)/C#N)C(F)(F)F

> <PUBCHEM_CACTVS_TPSA>
101

> <PUBCHEM_MONOISOTOPIC_WEIGHT>
335.07040306

> <PUBCHEM_TOTAL_CHARGE>
0

> <PUBCHEM_HEAVY_ATOM_COUNT>
23

> <PUBCHEM_ATOM_DEF_STEREO_COUNT>
0

> <PUBCHEM_ATOM_UDEF_STEREO_COUNT>
0

> <PUBCHEM_BOND_DEF_STEREO_COUNT>
1

> <PUBCHEM_BOND_UDEF_STEREO_COUNT>
0

> <PUBCHEM_ISOTOPIC_ATOM_COUNT>
0

> <PUBCHEM_COMPONENT_COUNT>
1

> <PUBCHEM_CACTVS_TAUTO_COUNT>
-1

> <PUBCHEM_COORDINATE_TYPE>
1
5
255

> <PUBCHEM_BONDANNOTATIONS>
11  15  8
12  16  8
15  16  8
17  18  8
17  19  8
18  21  8
19  22  8
20  21  8
20  22  8
8  11  8
8  9  8
9  12  8

$$$$
10172827
  -OEChem-11282409422D

 55 56  0     1  0  0  0  0  0999 V2000
    7.2622   -1.0721    0.0000 O   0  0  0  0  0  0  0  0  0  0  0  0
   10.7263    1.9279    0.0000 O   0  0  0  0  0  0  0  0  0  0  0  0
    9.5182   -0.5118    0.0000 O   0  0  0  0  0  0  0  0  0  0  0  0
   11.5923    0.4279    0.0000 O   0  0  0  0  0  0  0  0  0  0  0  0
    5.5138   -1.1067    0.0000 O   0  0  0  0  0  0  0  0  0  0  0  0
    8.2622   -0.0721    0.0000 O   0  0  0  0  0  0  0  0  0  0  0  0
    3.7320    1.9521    0.0000 N   0  0  0  0  0  0  0  0  0  0  0  0
    8.9942   -1.0721    0.0000 C   0  0  1  0  0  0  0  0  0  0  0  0
    8.1282   -1.5721    0.0000 C   0  0  2  0  0  0  0  0  0  0  0  0
    9.8602    1.4279    0.0000 C   0  0  2  0  0  0  0  0  0  0  0  0
    9.8602    0.4279    0.0000 C   0  0  1  0  0  0  0  0  0  0  0  0
    9.8602   -1.5721    0.0000 C   0  0  0  0  0  0  0  0  0  0  0  0
    8.9942   -0.0721    0.0000 C   0  0  0  0  0  0  0  0  0  0  0  0
    8.9942    1.9279    0.0000 C   0  0  0  0  0  0  0  0  0  0  0  0
    8.1282   -2.5721    0.0000 C   0  0  0  0  0  0  0  0  0  0  0  0
   10.7263   -0.0721    0.0000 C   0  0  0  0  0  0  0  0  0  0  0  0
   10.7263   -1.0721    0.0000 C   0  0  0  0  0  0  0  0  0  0  0  0
    6.3961    0.4279    0.0000 C   0  0  0  0  0  0  0  0  0  0  0  0
    6.3961    1.4279    0.0000 C   0  0  0  0  0  0  0  0  0  0  0  0
    8.1282    1.4279    0.0000 C   0  0  0  0  0  0  0  0  0  0  0  0
    7.2622   -0.0721    0.0000 C   0  0  0  0  0  0  0  0  0  0  0  0
    7.2622    1.9279    0.0000 C   0  0  0  0  0  0  0  0  0  0  0  0
    5.5022    1.9626    0.0000 C   0  0  0  0  0  0  0  0  0  0  0  0
    5.5022   -0.1067    0.0000 C   0  0  0  0  0  0  0  0  0  0  0  0
    4.5961    1.4487    0.0000 C   0  0  0  0  0  0  0  0  0  0  0  0
    4.5961    0.4071    0.0000 C   0  0  0  0  0  0  0  0  0  0  0  0
    2.8641    1.4554    0.0000 C   0  0  0  0  0  0  0  0  0  0  0  0
    2.0000    1.9588    0.0000 C   0  0  0  0  0  0  0  0  0  0  0  0
    9.5312   -0.7621    0.0000 H   0  0  0  0  0  0  0  0  0  0  0  0
    7.5912   -1.8821    0.0000 H   0  0  0  0  0  0  0  0  0  0  0  0
    9.8602    2.0479    0.0000 H   0  0  0  0  0  0  0  0  0  0  0  0
    9.2497    0.5356    0.0000 H   0  0  0  0  0  0  0  0  0  0  0  0
    9.8602   -2.1921    0.0000 H   0  0  0  0  0  0  0  0  0  0  0  0
    9.6142   -0.0721    0.0000 H   0  0  0  0  0  0  0  0  0  0  0  0
    8.9942    0.5479    0.0000 H   0  0  0  0  0  0  0  0  0  0  0  0
    8.3742   -0.0721    0.0000 H   0  0  0  0  0  0  0  0  0  0  0  0
    9.3927    2.4029    0.0000 H   0  0  0  0  0  0  0  0  0  0  0  0
    8.5957    2.4029    0.0000 H   0  0  0  0  0  0  0  0  0  0  0  0
    7.5082   -2.5721    0.0000 H   0  0  0  0  0  0  0  0  0  0  0  0
    8.1282   -3.1921    0.0000 H   0  0  0  0  0  0  0  0  0  0  0  0
    8.7482   -2.5721    0.0000 H   0  0  0  0  0  0  0  0  0  0  0  0
   11.2632   -1.3821    0.0000 H   0  0  0  0  0  0  0  0  0  0  0  0
    8.4383    0.8910    0.0000 H   0  0  0  0  0  0  0  0  0  0  0  0
    7.2622    2.5479    0.0000 H   0  0  0  0  0  0  0  0  0  0  0  0
    5.5094    2.5826    0.0000 H   0  0  0  0  0  0  0  0  0  0  0  0
    4.0604    0.0950    0.0000 H   0  0  0  0  0  0  0  0  0  0  0  0
   10.7263    2.5479    0.0000 H   0  0  0  0  0  0  0  0  0  0  0  0
   10.1008   -0.7238    0.0000 H   0  0  0  0  0  0  0  0  0  0  0  0
    3.7344    2.5721    0.0000 H   0  0  0  0  0  0  0  0  0  0  0  0
    2.4637    0.9820    0.0000 H   0  0  0  0  0  0  0  0  0  0  0  0
    3.2608    0.9789    0.0000 H   0  0  0  0  0  0  0  0  0  0  0  0
    4.9804   -1.4229    0.0000 H   0  0  0  0  0  0  0  0  0  0  0  0
    2.3121    2.4945    0.0000 H   0  0  0  0  0  0  0  0  0  0  0  0
    1.4643    2.2708    0.0000 H   0  0  0  0  0  0  0  0  0  0  0  0
    1.6879    1.4230    0.0000 H   0  0  0  0  0  0  0  0  0  0  0  0
  1  9  1  0  0  0  0
  1 21  1  0  0  0  0
 10  2  1  6  0  0  0
  2 47  1  0  0  0  0
 11  3  1  1  0  0  0
  3 48  1  0  0  0  0
  4 16  2  0  0  0  0
  5 24  1  0  0  0  0
  5 52  1  0  0  0  0
  6 21  2  0  0  0  0
  7 25  1  0  0  0  0
  7 27  1  0  0  0  0
  7 49  1  0  0  0  0
  8  9  1  0  0  0  0
  8 12  1  0  0  0  0
  8 13  1  6  0  0  0
  8 29  1  0  0  0  0
  9 15  1  6  0  0  0
  9 30  1  0  0  0  0
 10 11  1  0  0  0  0
 10 14  1  0  0  0  0
 10 31  1  0  0  0  0
 11 16  1  0  0  0  0
 11 32  1  0  0  0  0
 12 17  2  0  0  0  0
 12 33  1  0  0  0  0
 13 34  1  0  0  0  0
 13 35  1  0  0  0  0
 13 36  1  0  0  0  0
 14 20  1  0  0  0  0
 14 37  1  0  0  0  0
 14 38  1  0  0  0  0
 15 39  1  0  0  0  0
 15 40  1  0  0  0  0
 15 41  1  0  0  0  0
 16 17  1  0  0  0  0
 17 42  1  0  0  0  0
 18 19  2  0  0  0  0
 18 21  1  0  0  0  0
 18 24  1  0  0  0  0
 19 22  1  0  0  0  0
 19 23  1  0  0  0  0
 20 22  2  0  0  0  0
 20 43  1  0  0  0  0
 22 44  1  0  0  0  0
 23 25  2  0  0  0  0
 23 45  1  0  0  0  0
 24 26  2  0  0  0  0
 25 26  1  0  0  0  0
 26 46  1  0  0  0  0
 27 28  1  0  0  0  0
 27 50  1  0  0  0  0
 27 51  1  0  0  0  0
 28 53  1  0  0  0  0
 28 54  1  0  0  0  0
 28 55  1  0  0  0  0
M  END
> <PUBCHEM_COMPOUND_CID>
10172827

> <PUBCHEM_COMPOUND_CANONICALIZED>
1

> <PUBCHEM_CACTVS_COMPLEXITY>
604

> <PUBCHEM_CACTVS_HBOND_ACCEPTOR>
7

> <PUBCHEM_CACTVS_HBOND_DONOR>
4

> <PUBCHEM_CACTVS_ROTATABLE_BOND>
2

> <PUBCHEM_CACTVS_SUBSKEYS>
AAADceB6OAAAAAAAAAAAAAAAAAAAAAAAAAAwAAAAAAAAAAABAAAAHgAQCAAADRzhmAYyzoLABgCIAqTSSAKCAAAlIgAIiIFObMgJNzbCtZuGcUhn8BnJ+YeY2bOeiAABQgAYAAAQAAKEADAAAAAAAAAAAA==

> <PUBCHEM_IUPAC_OPENEYE_NAME>
(4S,5R,6Z,9S,10S,12E)-16-(ethylamino)-9,10,18-trihydroxy-4,5-dimethyl-3-oxabicyclo[12.4.0]octadeca-1(14),6,12,15,17-pentaene-2,8-dione

> <PUBCHEM_IUPAC_CAS_NAME>
(4S,5R,6Z,9S,10S,12E)-16-(ethylamino)-9,10,18-trihydroxy-4,5-dimethyl-3-oxabicyclo[12.4.0]octadeca-1(14),6,12,15,17-pentaene-2,8-dione

> <PUBCHEM_IUPAC_NAME_MARKUP>
(4<I>S</I>,5<I>R</I>,6<I>Z</I>,9<I>S</I>,10<I>S</I>,12<I>E</I>)-16-(ethylamino)-9,10,18-trihydroxy-4,5-dimethyl-3-oxabicyclo[12.4.0]octadeca-1(14),6,12,15,17-pentaene-2,8-dione

> <PUBCHEM_IUPAC_NAME>
(4S,5R,6Z,9S,10S,12E)-16-(ethylamino)-9,10,18-trihydroxy-4,5-dimethyl-3-oxabicyclo[12.4.0]octadeca-1(14),6,12,15,17-pentaene-2,8-dione

> <PUBCHEM_IUPAC_SYSTEMATIC_NAME>
(4S,5R,6Z,9S,10S,12E)-16-(ethylamino)-4,5-dimethyl-9,10,18-tris(oxidanyl)-3-oxabicyclo[12.4.0]octadeca-1(14),6,12,15,17-pentaene-2,8-dione

> <PUBCHEM_IUPAC_TRADITIONAL_NAME>
(4S,5R,6Z,9S,10S,12E)-16-(ethylamino)-9,10,18-trihydroxy-4,5-dimethyl-3-oxabicyclo[12.4.0]octadeca-1(14),6,12,15,17-pentaene-2,8-quinone

> <PUBCHEM_IUPAC_INCHI>
InChI=1S/C21H27NO6/c1-4-22-15-10-14-6-5-7-16(23)20(26)17(24)9-8-12(2)13(3)28-21(27)19(14)18(25)11-15/h5-6,8-13,16,20,22-23,25-26H,4,7H2,1-3H3/b6-5+,9-8-/t12-,13+,16+,20+/m1/s1

> <PUBCHEM_IUPAC_INCHIKEY>
MWUFVYLAWAXDHQ-HMNLTAHHSA-N

> <PUBCHEM_XLOGP3_AA>
3.3

> <PUBCHEM_EXACT_MASS>
389.18383758

> <PUBCHEM_MOLECULAR_FORMULA>
C21H27NO6

> <PUBCHEM_MOLECULAR_WEIGHT>
389.4

> <PUBCHEM_OPENEYE_CAN_SMILES>
CCNC1=CC2=C(C(=C1)O)C(=O)OC(C(C=CC(=O)C(C(CC=C2)O)O)C)C

> <PUBCHEM_OPENEYE_ISO_SMILES>
CCNC1=CC\2=C(C(=C1)O)C(=O)O[C@H]([C@@H](/C=C\C(=O)[C@H]([C@H](C/C=C2)O)O)C)C

> <PUBCHEM_CACTVS_TPSA>
116

> <PUBCHEM_MONOISOTOPIC_WEIGHT>
389.18383758

> <PUBCHEM_TOTAL_CHARGE>
0

> <PUBCHEM_HEAVY_ATOM_COUNT>
28

> <PUBCHEM_ATOM_DEF_STEREO_COUNT>
4

> <PUBCHEM_ATOM_UDEF_STEREO_COUNT>
0

> <PUBCHEM_BOND_DEF_STEREO_COUNT>
2

> <PUBCHEM_BOND_UDEF_STEREO_COUNT>
0

> <PUBCHEM_ISOTOPIC_ATOM_COUNT>
0

> <PUBCHEM_COMPONENT_COUNT>
1

> <PUBCHEM_CACTVS_TAUTO_COUNT>
-1

> <PUBCHEM_COORDINATE_TYPE>
1
5
255

> <PUBCHEM_BONDANNOTATIONS>
18  19  8
18  24  8
19  23  8
10  2  6
23  25  8
24  26  8
25  26  8
11  3  5
8  13  6
9  15  6

$$$$
